* Z:\mnt\design.r\spice\examples\1021-5.asc
XU1 IN 0 OUT N001 LT1021-5
V1 IN 0 12
R1 OUT N001 27K
R2 OUT N002 {50K*(1-x)}
R3 N002 0 {50K*x}
D1 N001 N002 1N4148
.model D D
.lib C:\users\brian\My Documents\LTspiceXVII\lib\cmp\standard.dio
.dc TEMP -50 125 1
.step param X list .2 .5 .8
.lib LTC3.lib
.backanno
.end
