* Z:\mnt\design.r\spice\examples\1159-5.asc
V1 IN 0 48
M§Q1 N005 N012 0 0 FDS5690
M§Q2 N005 N002 IN IN IRF7343P
C1 N011 0 470p
C2 N009 0 3300p
R1 N010 N009 1K
C3 N003 0 3.3µ
C4 N001 N003 .15µ
D1 N002 IN 1N4148
L1 N005 N006 33µ
R2 N006 OUT 50m
C5 N006 OUT 1000p
C6 N002 N004 .1µ
D2 0 N005 MBRS360
C7 OUT 0 220µ Rser=.01
XU1 N002 IN N003 N004 MP_01 N011 N010 OUT N006 N007 0 0 N012 OUT N008 N001 LTC1159-5
Rload OUT 0 5
.model D D
.lib C:\users\brian\My Documents\LTspiceXVII\lib\cmp\standard.dio
.model NMOS NMOS
.model PMOS PMOS
.lib C:\users\brian\My Documents\LTspiceXVII\lib\cmp\standard.mos
.tran 50m startup
.lib LTC1159-5.sub
.backanno
.end
