* Z:\mnt\design.r\spice\examples\1236-5.asc
V1 IN 0 pwl(0 0 1u 12)
XU1 IN 0 OUT LT1236-5
.tran 20u
.lib LTC4.lib
.backanno
.end
