* Z:\mnt\design.r\spice\examples\1376HV.asc
R1 N005 0 4.99K
R2 OUT N005 5.36K
D1 0 N002 MBRS340
D2 OUT N001 1N4148
C1 OUT 0 1µ
C2 N001 N002 .1µ
C3 OUT 0 100µ Rser=0.05
L1 N002 OUT 5µ Rser=0.02 Rpar=5000
V1 IN 0 10
C5 N004 0 3.3n
XU1 N001 IN N002 OUT N003 0 N005 N004 LT1376 top=10 bot=1T
Rload OUT 0 10
.model D D
.lib C:\users\brian\My Documents\LTspiceXVII\lib\cmp\standard.dio
.tran 1m startup
.lib LT1376.sub
.backanno
.end
