* Z:\mnt\design.r\spice\examples\1430A.asc
L1 N006 OUT 2.8
V1 IN 0 5
C1 OUT 0 330 x6 Rser=.1
M쬞1 N006 N008 0 0 IRF7201 m=2
C2 N014 0 220p
C3 N013 0 4700p
R1 N014 N013 7.5K
R2 IN N002 16K
M쬞2 IN N003 N006 N006 IRF7201 m=2
R3 OUT N012 20K
R4 N012 0 12.5K
R5 N006 N005 1K
D1 IN N001 MBR0530L
C4 N001 N006 .22
C5 N007 0 .01
C6 IN N002 .1
R6 IN N004 100
C7 N004 0 4.7
XU1 N003 N001 0 0 N015 N012 N010 N011 N007 N014 N009 N002 N005 N004 IN N008 LTC1430A
Rload OUT 0 1
.model D D
.lib C:\users\brian\My Documents\LTspiceXVII\lib\cmp\standard.dio
.model NMOS NMOS
.model PMOS PMOS
.lib C:\users\brian\My Documents\LTspiceXVII\lib\cmp\standard.mos
.tran 4m startup
.lib LTC1430A.sub
.backanno
.end
