* Z:\mnt\design.r\spice\examples\1436A.asc
C1 N018 0 .01
C2 N014 0 100p
M쬞1 IN N005 N009 N009 Si4410DY
M쬞2 IN N008 N009 N009 Si4410DY
M쬞3 N009 N013 0 0 Si4410DY
L1 N009 N010 10
D1 0 N009 1N5818
R1 N010 OUT .03
C3 N004 N009 .1
D2 N001 N004 1N5818
C4 OUT 0 220
R2 N007 0 10K
C5 N006 N007 1000p
C6 N007 0 470p
C7 N010 OUT 1000p
Rload OUT 0 10
C8 N001 0 3.3
V1 IN 0 6
XU1 N014 N018 N012 N011 N006 N003 0 0 OUT OUT N010 N017 N016 N015 N002 0 N013 N001 IN N005 N009 N008 N004 LTC1436A
.model D D
.lib C:\users\brian\My Documents\LTspiceXVII\lib\cmp\standard.dio
.model NMOS NMOS
.model PMOS PMOS
.lib C:\users\brian\My Documents\LTspiceXVII\lib\cmp\standard.mos
.tran 7m startup
.lib LTC1436A.sub
.backanno
.end
