* Z:\mnt\design.r\spice\examples\1507-3.3.asc
R1 N005 N004 1K
D1 0 N003 MBRS340
D2 IN N001 1N914
C1 OUT 0 100µ Rser=0.05
L1 N003 OUT 10µ Rser=0.02 Rpar=5000
V1 IN 0 12
C3 N005 0 .001µ
C4 N004 0 .025µ
C5 N001 N003 .22µ
XU1 N001 IN N003 N002 MP_01 0 OUT N005 LT1507 top=1.815K bot=4.99K
Rload OUT 0 3.3
.model D D
.lib C:\users\brian\My Documents\LTspiceXVII\lib\cmp\standard.dio
.tran 1m startup
.lib LT1507.sub
.backanno
.end
