* Z:\mnt\design.r\spice\examples\1530-3.3.asc
L1 N008 OUT 5
V1 IN 0 8
M쬞1 N008 N009 0 0 IRF7201
C3 N006 0 150p
C4 N005 0 .022
R1 N006 N005 10K
R2 IN N003 50K
M쬞2 IN N004 N008 N008 IRF7201
R3 N008 N007 20
D1 N002 N001 MBR0530L
D2 IN N002 MBR0530L
C5 N002 N008 .22
C6 N001 0 .01
C7 N001 0 10
XU1 N001 0 OUT N006 N003 N007 N009 N004 LTC1530 Top=68555 Bot=41K
Rload OUT 0 .2
C1 OUT 0 330 Rser=.1 x7
.model D D
.lib C:\users\brian\My Documents\LTspiceXVII\lib\cmp\standard.dio
.model NMOS NMOS
.model PMOS PMOS
.lib C:\users\brian\My Documents\LTspiceXVII\lib\cmp\standard.mos
.tran 6m startup
.lib LTC1530.sub
.backanno
.end
