* Z:\mnt\design.r\spice\examples\1577-3.3.asc
M§Q1 N001 N003 N004 N004 IRFZ24
I1 N004 0 PULSE(.2 5 300u 100n 100n 300u 600u) load
C1 N004 0 24µ
V1 N001 0 5
V2 N002 0 12
XU1 0 N002 0 N004 N005 N003 N001 N001 LT1575-3.3
C2 N005 0 10p
R1 N005 N006 7.5K
C3 N006 0 1000p
.model NMOS NMOS
.model PMOS PMOS
.lib C:\users\brian\My Documents\LTspiceXVII\lib\cmp\standard.mos
.tran 1m
.lib LT1575.lib
.backanno
.end
