* Z:\mnt\design.r\spice\examples\1584-3.45.asc
V1 IN 0 PWL(0 0 1 10)
C1 OUT 0 22µ
Rload OUT 0 500
XU1 0 OUT IN LT1584-3.45
.tran 1
.lib LT1584.lib
.backanno
.end
