* Z:\mnt\design.r\spice\examples\1963A-1.8.asc
V1 IN 0 PWL(0 0 1 10)
C1 OUT 0 1µ
Rload OUT 0 1K
XU1 IN IN 0 OUT OUT LT1963-1.8
.tran 1
.lib LT1963.lib
.backanno
.end
