* Z:\mnt\design.r\spice\examples\1983-5.asc
C1 N001 N002 1µ
C2 OUT 0 10µ
V1 IN 0 5.5
Rload OUT 0 100
XU1 IN OUT N001 N002 0 IN LTC1983-5
.tran 1m startup
.lib LTC1983-5.sub
.backanno
.end
