* Z:\mnt\design.r\spice\examples\3024.asc
C1 N002 N003 .01
C2 N005 N006 .01
V2 N001 0 PWL(0 0 1 10)
R1 N002 N004 422K
R2 N004 0 249K
C3 N002 0 10
R3 N002 0 6.6
R4 N005 N007 261K
R5 N007 0 249K
C4 N005 0 10
R6 N005 0 25
XU1 N003 N002 MP_01 0 N005 N006 N007 N001 N001 MP_02 N001 N004 LT3024
.tran 1
.lib LT3024.lib
.backanno
.end
