* Z:\mnt\design.r\spice\examples\3406B-2.asc
V1 IN 0 5
C2 OUT 0 10µ
L1 N001 OUT 2.2µ
Rload OUT 0 5
R1 OUT N002 887K
R2 N002 0 280K
XU1 IN 0 N001 IN N002 LTC3406B-2
.tran 500u startup
.lib LTC3406B-2.sub
.backanno
.end
