* Z:\mnt\design.r\spice\examples\3407-4.asc
V1 IN 0 5
C2 OUT1 0 10
L1 N002 OUT1 2.2
R1 N004 0 443.5K
R2 OUT1 N004 887K
C1 OUT2 0 10
L2 N001 OUT2 2.2
R5 N003 0 280K
R6 OUT2 N003 887K
C3 OUT2 N003 22p
C5 OUT1 N004 22p
XU1 N004 IN IN N002 0 IN N001 MP_01 IN N003 LTC3407-2
Rload1 OUT1 0 100
Rload2 OUT2 0 100
.tran 250u startup
.lib LTC3407-2.sub
.backanno
.end
