* Z:\mnt\design.r\spice\examples\3412A.asc
L1 N003 OUT 2.2µ
R1 OUT N006 887K
V1 IN 0 5
R2 N006 0 412K
R3 N007 0 324K
R4 N005 N004 13K
C1 OUT 0 22µ
Rload OUT 0 20
C2 N004 0 1000p
R6 IN N002 10K
R7 IN N001 10K
XU1 N007 0 0 N003 0 IN IN N001 N006 N005 N002 LTC3412A
.tran 500u startup
.lib LTC3412A.sub
.backanno
.end
