* Z:\mnt\design.r\spice\examples\3417A.asc
L1 N001 OUT1 1.5
R1 N003 0 412K
C1 OUT1 0 22
C2 N005 0 2200p Rser=5.9K
V1 IN 0 5
C3 N003 OUT1 22p Rpar=511K
L2 N002 OUT2 2.2
R2 N004 0 412K
C4 OUT2 0 10
C5 N004 OUT2 22p Rpar=866K
C6 0 N006 6800p Rser=2.87K
R3 IN N007 50K
XU1 MP_01 IN IN N005 N003 N004 N006 IN IN 0 MP_02 0 N002 N007 0 0 0 N001 0 LTC3417A
Rload1 OUT1 0 5
Rload2 OUT2 0 10
.tran 200u startup
.lib LTC3417A.sub
.backanno
.end
