* Z:\mnt\design.r\spice\examples\3458L.asc
L1 IN N001 7.4
R1 OUT N003 1Meg
R2 N003 0 324K
V1 IN 0 3.65
C1 OUT 0 22
C2 OUT N003 10p
R3 N006 N005 33K
C3 N006 0 560p
C4 N008 0 .001
C5 N007 0 .01
R4 N007 0 133K
R5 N004 0 84.5K
R6 N002 0 200K
XU1 N001 IN MP_01 IN N004 N002 N003 N005 0 N008 N007 OUT 0 LTC3458L
Rload OUT 0 6.67
.tran 500u startup
.lib LTC3458L.sub
.backanno
.end
