* Z:\mnt\design.r\spice\examples\3473A.asc
L1 IN N001 6.8
R1 N003 N005 2Meg
R2 N005 0 100K
C1 N003 0 .47
C2 OUT 0 2.2
V1 IN 0 3.6
Rload OUT 0 312.5
R4 N002 IN 10K
C3 N004 0 .1
R5 N004 IN 100K
XU1 N003 OUT N007 N009 N006 N008 N005 IN N002 N004 IN N001 0 LT3473A
.tran 6m startup
.lib LT3473A.sub
.backanno
.end
