* Z:\mnt\design.r\spice\examples\3506A.asc
V1 IN 0 5
C1 N014 0 100p
C2 N002 N004 .1
L1 N004 OUT1 3.3
R1 OUT1 N006 15K
R2 N006 0 30.1K
D1 0 N004 MBRS340
C3 OUT1 0 68
C4 N009 N010 .0022
R3 N012 OUT1 10K
C5 N013 0 100p
C6 N001 N003 .1
L2 N003 OUT2 4.7
R4 OUT2 N005 22.6K
R5 N005 0 18.2K
D2 0 N003 MBRS340
C7 OUT2 0 47
C8 N008 N007 .0022
R6 N011 OUT2 10K
R7 N007 0 10K
R8 0 N010 10K
D3 IN N001 BAT54
D4 IN N002 BAT54
XU1 N002 MP_01 N004 IN MP_02 N003 0 N001 N005 N008 N011 N013 N014 N012 N009 N006 LT3506A
Rload1 OUT1 0 .8
Rload2 OUT2 0 1.2
.model D D
.lib C:\users\brian\My Documents\LTspiceXVII\lib\cmp\standard.dio
.tran 350u startup
.lib LT3506A.sub
.backanno
.end
