* Z:\mnt\design.r\spice\examples\3545-1.asc
V1 IN 0 3.6
C1 OUT1 0 10
L1 N001 OUT1 1.5
R1 N003 0 255K
R2 OUT1 N003 511K
C2 OUT1 N003 20p
C3 OUT2 0 10
L2 N004 OUT2 1.5
R3 N006 0 226K
R4 OUT2 N006 226K
C4 OUT2 N006 20p
C5 OUT3 0 10
L3 N007 OUT3 1.5
R5 N009 0 200K
R6 OUT3 N009 301K
C6 OUT3 N009 20p
R7 IN N002 500K
R8 N005 IN 500K
XU1 N001 N002 IN N005 N004 0 IN N007 N008 IN N009 N006 N003 IN IN 0 LTC3545-1
R9 N008 IN 500K
Rload2 OUT2 0 1.5
Rload1 OUT1 0 2.25
Rload3 OUT3 0 1.875
.tran 1m startup
.lib LTC3545-1.sub
.backanno
.end
