* Z:\mnt\design.r\spice\examples\3547B.asc
V1 IN 0 3.6
L1 N001 OUT2 4.7
R1 OUT2 N003 475K
R2 N003 0 237K
C1 OUT2 N003 10p
L2 N002 OUT1 4.7
R3 OUT1 N004 475K
R4 N004 0 150K
C2 OUT1 N004 10p
XU1 N004 IN IN N002 0 N001 IN N003 LTC3547B
Rload2 OUT2 0 1.8K
Rload1 OUT1 0 8.33
C3 OUT2 0 4.7
C4 OUT1 0 4.7
.tran 800u startup
.lib LTC3547B.sub
.backanno
.end
