* Z:\mnt\design.r\spice\examples\3605A.asc
V1 IN 0 12
R1 N006 0 162K
C1 N002 0 .001µ
C2 N001 0 2.2µ
C3 N003 N004 .1µ
D1 N001 N003 CMDSH2-3
L1 N004 OUT 1µ
R2 OUT N005 11.5K
R3 N005 0 2.55K
C4 N007 0 220p Rser=16K
C5 OUT 0 47µ X2 V=6.3 Irms=0 Rser=0.002 Lser=0 mfg="TDK" pn="C4532X5ROJ47@M" type="X5R"
Rload OUT 0 .66
XU1 N006 NC_01 NC_02 N005 N002 N007 IN NC_03 OUT 0 N004 MP_04 MP_05 MP_06 MP_07 MP_08 IN MP_09 IN N003 N001 0 NC_10 0 LTC3605
.model D D
.lib C:\users\brian\My Documents\LTspiceXVII\lib\cmp\standard.dio
.tran 400u startup
.lib LTC3605.sub
.backanno
.end
