* Z:\mnt\design.r\spice\examples\3606B.asc
V1 IN 0 4.2
L1 N001 OUT 1.5µ
R1 N004 0 116K
C1 N004 0 1000p
R2 OUT N003 1210K
R3 N003 0 255K
C2 OUT 0 100µ
XU1 0 N004 MP_01 N001 IN N002 IN N003 LTC3606B
R4 IN N002 499K
Rload OUT 0 20
.tran 1.5m startup
.lib LTC3606B.sub
.backanno
.end
