* Z:\mnt\design.r\spice\examples\3631-5.asc
V1 IN 0 36
L1 N001 OUT 100µ
C1 OUT 0 10µ
Rload OUT 0 50
XU1 N001 IN NC_01 NC_02 IN OUT NC_03 0 LTC3631-5
.tran 1.5m startup
.lib LTC3631-5.sub
.backanno
.end
