* Z:\mnt\design.r\spice\examples\3633A-3.asc
V1 IN 0 12
C1 0 N001 2.2µ
L1 N004 OUT1 1µ Rser=10m
C4 N002 N004 .1µ
R1 OUT1 N006 45.3K
R2 N006 0 10K
C2 OUT1 0 22µ Rser=5m
Rload1 OUT1 0 1.1
L2 N005 OUT2 1.5µ Rser=10m
C3 N003 N005 .1µ
R4 OUT2 N007 73.2K
R5 N007 0 10K
C9 OUT2 0 22µ Rser=5m
Rload2 OUT2 0 1.667
XU1 NC_01 N001 IN N001 N001 IN 0 NC_02 N007 NC_03 N001 OUT2 N005 IN IN MP_04 N003 MP_05 N001 N002 IN MP_06 N004 MP_07 OUT1 N001 NC_08 N006 0 LTC3633A-3
.tran .5m startup
.lib LTC3633A-3.sub
.backanno
.end
