* Z:\mnt\design.r\spice\examples\3686A.asc
L1 N003 OUT 6.8µ
D1 N004 N003 MBRS140
C1 N001 N003 .22µ
R1 OUT N006 31.6K
R2 N006 0 10K
C2 OUT 0 22µ Rser=50m
R3 N002 0 31.6K
C3 N005 0 .001µ
V1 IN 0 12
Rload OUT 0 2.75
XU1 IN OUT N006 N005 N002 IN 0 N001 N004 N003 0 LT3686A
.model D D
.lib C:\users\brian\My Documents\LTspiceXVII\lib\cmp\standard.dio
.tran 500u startup
.lib LT3686A.sub
.backanno
.end
