* Z:\mnt\design.r\spice\examples\3727LX-1.asc
M§Q1 IN N003 N005 N005 FDS6680A
M§Q2 N005 N011 0 0 FDS6680A
C1 N006 N005 .1µ
C2 N001 0 4.7µ
D1 0 N005 MBRS140
L1 N005 N009 8µ Rpar=2K
C3 N009 OUT1 1000p
R1 N013 0 20K
R2 N013 OUT1 105K
C4 OUT1 0 56µ Rser=0.05
C5 N015 0 220p Rser=15K
C6 N017 0 .0001µ
V1 IN 0 18
M§Q3 IN N004 N008 N008 FDS6680A
M§Q4 N008 N012 0 0 FDS6680A
C7 N007 N008 .1µ
R4 N010 OUT2 .015
C8 N010 OUT2 1000p
R5 N014 0 20K
R6 N014 OUT2 280K
C9 OUT2 0 56µ Rser=0.065
C11 N018 0 .0001µ
L2 N008 N010 15µ Rpar=2K
R8 N009 OUT1 .015
R9 IN N020 10K
D2 0 N008 MBRS140
D3 N001 N006 MBRS140
D4 N001 N007 MBRS140
C12 0 N021 .01µ Rser=10K
V2 N022 0 SINE(.8 .8 300K)
XU1 N017 N009 OUT1 N013 N021 N022 N001 N015 0 N019 N016 N014 OUT2 N010 N018 N004 N008 N007 N012 0 N001 N002 N011 IN N006 N005 N003 N020 LTC3727A-1
C10 0 N016 220p Rser=15K
Rload1 OUT1 0 1
Rload2 OUT2 0 2.4
.model D D
.lib C:\users\brian\My Documents\LTspiceXVII\lib\cmp\standard.dio
.model NMOS NMOS
.model PMOS PMOS
.lib C:\users\brian\My Documents\LTspiceXVII\lib\cmp\standard.mos
.tran 800u startup
.lib LTC3727A-1.sub
.backanno
.end
