* Z:\mnt\design.r\spice\examples\3763.asc
XU1 N011 N005 N001 N002 N006 N004 N003 N013 NC_01 N006 N018 0 N006 N006 N020 OUT N010 N017 N015 N022 MP_02 N021 MP_03 N019 N008 N009 N007 LT3763
R1 N022 0 82.5K
V1 N021 0 PULSE(0 2 .1m 10n 10n 20u 50u)
C1 N020 0 .01µ
C2 N017 0 4700p Rser=59K
R2 N015 N014 50
C3 N014 0 .001µ
R3 N013 N012 50
C4 N012 0 .001µ
C5 N006 0 .22µ
V2 IN 0 24
R4 IN N001 2.5m
R5 IN N003 1K
R6 N001 N004 1K
C6 N003 N004 1µ
R7 IN N002 84.5K
R8 N002 0 15.4K
C7 N001 0 4.7µ
C8 N005 0 4.7µ
D1 N005 N007 1N5819
C9 N007 N009 .22µ
M§Q1 N001 N008 N009 N009 RJK0305DPB
M§Q2 N009 N011 0 0 RJK0301DPB
L1 N009 N010 1.5µ Rser=2m
R9 N010 OUT 2.5m
R10 OUT N018 47.5K
R11 N018 0 12.1K
C10 OUT 0 220µ x2 V=6.3 Irms=3.2 Rser=0.012 Lser=0 mfg="KEMET" pn="T520V227M006ASE012" type="Tantalum"
D2 OUT N016 PT-121-B
M§Q3 N016 N019 0 0 IRFH6200
.model D D
.lib C:\users\brian\My Documents\LTspiceXVII\lib\cmp\standard.dio
.model NMOS NMOS
.model PMOS PMOS
.lib C:\users\brian\My Documents\LTspiceXVII\lib\cmp\standard.mos
.tran 3m startup
.lib LT3763.sub
.backanno
.end
