* Z:\mnt\design.r\spice\examples\3772B.asc
V1 IN 0 5
M§Q1 N001 N003 IN IN FDC638P
R1 N005 N004 20K
C1 N004 0 680p
D1 0 N001 1N5817
L1 N001 OUT 3.3µ
C2 OUT 0 47µ
R2 OUT N006 174K
R3 0 N006 82.5K
Rload 0 OUT 2.5
XU1 N002 N005 N006 0 N003 IN N001 LTC3772B
.model D D
.lib C:\users\brian\My Documents\LTspiceXVII\lib\cmp\standard.dio
.model NMOS NMOS
.model PMOS PMOS
.lib C:\users\brian\My Documents\LTspiceXVII\lib\cmp\standard.mos
.tran 1.5m startup
.lib LTC3772B.sub
.backanno
.end
