* Z:\mnt\design.r\spice\examples\3786.asc
C1 N001 0 4.7µ
V1 IN 0 10
C2 OUT 0 220µ Rser=5m
R1 N003 0 12.1K
R2 OUT N003 232K
C3 N009 0 .005µ
C4 N010 0 15n Rser=8.66K Cpar=220p
R3 IN N007 4m
L1 N007 N006 3.3µ Rser=2m
M§Q1 OUT N004 N006 N006 Si4840DY
M§Q2 N006 N008 0 0 Si4840DY
C5 N005 N006 .1µ
D1 N001 N005 MBR0540
Rload OUT 0 4.8
XU1 N007 0 MP_01 MP_02 0 0 N002 MP_03 MP_04 MP_05 MP_06 MP_07 MP_08 MP_09 MP_10 MP_11 MP_12 MP_13 N001 MP_14 MP_15 OUT N008 N005 N004 N006 NC_16 MP_17 N009 N010 N003 IN LTC3786
.model D D
.lib C:\users\brian\My Documents\LTspiceXVII\lib\cmp\standard.dio
.model NMOS NMOS
.model PMOS PMOS
.lib C:\users\brian\My Documents\LTspiceXVII\lib\cmp\standard.mos
.tran 2m startup
.lib LTC3786.sub
.backanno
.end
