* Z:\mnt\design.r\spice\examples\3801B.asc
V1 IN 0 5
R1 IN N001 25m
M§Q1 N005 N002 N001 N001 Si4465DY
R2 N004 N003 10K
C1 N003 0 220p
D1 0 N005 MBRS360
L1 N005 OUT 4.7µ
C2 OUT 0 47µ Rser=50m
R3 OUT N006 866K
R4 N006 0 402K
Rload OUT 0 1
XU1 N004 0 N006 N001 IN N002 LTC3801B
.model D D
.lib C:\users\brian\My Documents\LTspiceXVII\lib\cmp\standard.dio
.model NMOS NMOS
.model PMOS PMOS
.lib C:\users\brian\My Documents\LTspiceXVII\lib\cmp\standard.mos
.tran 1m startup
.lib LTC3801B.sub
.backanno
.end
