* Z:\mnt\design.r\spice\examples\3803-5.asc
V1 IN 0 5
L1 IN N002 25µ
L2 0 N001 25µ
M§Q1 N002 N004 N005 N005 HAT2168H
R1 N005 0 12m
R2 OUT N003 105K
R3 N003 0 20K
D1 N001 OUT 1N5817
C1 OUT 0 25µ Rser=150m
XU1 N007 0 N003 N008 IN N004 LTC3803-5
C2 N007 N006 .01µ
R4 N006 0 7.5K
R5 N005 N008 4.7K
Rload OUT 0 10
.model D D
.lib C:\users\brian\My Documents\LTspiceXVII\lib\cmp\standard.dio
.model NMOS NMOS
.model PMOS PMOS
.lib C:\users\brian\My Documents\LTspiceXVII\lib\cmp\standard.mos
K1 L1 L2 1.
.tran 9m startup
.lib LTC3803-5.sub
.backanno
.end
