* Z:\mnt\design.r\spice\examples\3830ES8.asc
C1 N003 0 .01µ
R1 N004 N003 15K
M§Q1 IN N002 N006 N006 Si9428DY
M§Q2 N006 N008 0 0 Si9428DY
D1 IN N005 MBR0520L
C2 N006 N005 .1µ
L1 N006 OUT 3.2µ
C3 OUT 0 270µ Rser=15m
V1 IN 0 5
XU1 N002 N005 0 N007 N001 N004 IN N008 LTC3830ES8
R2 OUT N007 5.36K
R3 N007 0 12.7K
C4 OUT N007 .0033µ
Rload OUT 0 2
.model D D
.lib C:\users\brian\My Documents\LTspiceXVII\lib\cmp\standard.dio
.model NMOS NMOS
.model PMOS PMOS
.lib C:\users\brian\My Documents\LTspiceXVII\lib\cmp\standard.mos
.tran 2m startup
.lib LTC3830ES8.sub
.backanno
.end
