* Z:\mnt\design.r\spice\examples\3831.asc
C1 N012 0 1500p
C2 N008 0 .01µ
R1 N013 N012 15K
M§Q1 N001 N006 N004 N004 Si4410DY
M§Q2 N004 N009 0 0 Si4410DY
R2 N004 N007 1K
R3 N001 N005 10K
D1 N002 N003 MBR0520L
C3 N004 N003 .1µ
L1 N004 OUT 1.2µ
C4 OUT 0 470µ Rser=10m x3
V1 N002 0 5
XU1 N006 N003 0 0 0 OUT N001 N011 N008 N013 N010 N005 N007 N002 N002 N009 LTC3831
C5 N013 0 33p
V2 N001 0 2.5
R4 N010 0 130K
Rload OUT 0 5
.model D D
.lib C:\users\brian\My Documents\LTspiceXVII\lib\cmp\standard.dio
.model NMOS NMOS
.model PMOS PMOS
.lib C:\users\brian\My Documents\LTspiceXVII\lib\cmp\standard.mos
.tran 1.5m startup
.lib LTC3831.sub
.backanno
.end
