* Z:\mnt\design.r\spice\examples\3858-2.asc
V1 IN 0 12
C1 N010 N011 .1µ
L1 N011 N012 7.2µ Rpar=2K
R1 N012 OUT2 .01
D1 N001 N010 BAT54
R2 OUT2 N016 193K
R3 N016 0 20K
C2 0 N020 .001µ
M§Q1 IN N005 N008 N008 Si7884DP
C3 N009 N008 .1µ
L2 N008 N007 3.3µ Rpar=2K
R4 N007 OUT1 .007
D2 N001 N009 BAT54
R5 OUT1 N015 62.5K
R6 N015 0 20K
C4 0 N019 .001µ
C5 N001 0 4.7µ
R7 N001 N003 100K
R8 N001 N004 100K
C6 OUT2 0 150µ Rser=50m
C7 OUT1 0 150µ Rser=50m
C8 N017 0 680p Rser=15K
M§Q2 N008 N013 0 0 Si7884DP
M§Q3 IN N006 N011 N011 Si7884DP
M§Q4 N011 N014 0 0 Si7884DP
V2 RUN 0 5
C9 N018 0 680p Rser=15K
XU1 OUT1 0 0 NC_01 NC_02 0 RUN RUN OUT2 N012 N016 N018 N020 N004 N006 N011 N010 N014 N001 N002 0 IN N013 N009 N008 N005 N003 N001 N019 N017 N015 N007 LTC3858-2
Rload2 OUT2 0 2.4
Rload1 OUT1 0 .66
.model D D
.lib C:\users\brian\My Documents\LTspiceXVII\lib\cmp\standard.dio
.model NMOS NMOS
.model PMOS PMOS
.lib C:\users\brian\My Documents\LTspiceXVII\lib\cmp\standard.mos
.tran 1m startup
.lib LTC3858-2.sub
.backanno
.end
