* Z:\mnt\design.r\spice\examples\3859AL.asc
V1 IN 0 6
L1 N018 N019 1.2µ
R1 N018 IN 2m
M§Q1 OUT3 N013 N019 N019 BSC027N04LS
M§Q2 N019 N021 0 0 BSC018N04LS
C1 OUT3 0 220µ Rser=1m
C2 N015 N019 0.1µ
R2 N010 OUT3 499K
R3 0 N010 68.1K
C3 N008 0 0.0047µ
C4 N007 0 0.0047µ
C5 IntVcc 0 4.7µ
C6 N018 IN 0.001µ
D1 IntVcc N015 BAT54
C7 N023 0 0.01µ Rser=3.6K Cpar=820p
M§Q3 OUT3 N002 N004 N004 BSZ097N04LS
M§Q4 N004 N006 0 0 BSZ097N04LS
C9 N003 N004 0.1µ
D2 IntVcc N003 BAT54
L2 N004 N005 4.9µ Rser=4m
R4 N005 OUT1 6m
C10 OUT1 0 220µ Rser=5m
C11 N005 OUT1 0.001µ
R5 N009 OUT1 357K
R6 0 N009 68.1K
C12 N011 0 1500p Cpar=100p Rser=15K
M§Q5 OUT3 N012 N016 N016 BSZ097N04LS
M§Q6 N016 N020 0 0 BSZ097N04LS
C13 N014 N016 0.1µ
D3 IntVcc N014 BAT54
L3 N016 N017 6.5µ Rser=4m
R7 N017 OUT2 8m
C14 OUT2 0 68µ Rser=3m
C15 N017 OUT2 0.001µ
R8 N022 OUT2 649K
R9 0 N022 68.1K
C16 N024 0 2200p Rser=15K Cpar=68p
Rload1 OUT1 0 1
Rload2 OUT2 0 2.8
R10 N001 OUT3 100K
XU1 0 NC_01 NC_02 IN N018 N010 N023 0 NC_03 NC_04 NC_05 OUT2 N017 N022 N024 N008 NC_06 N012 N016 N014 N020 IntVcc NC_07 OUT3 N021 N015 N013 N019 N006 N003 N004 N002 N001 N007 N011 N009 N005 OUT1 0 LTC3859AL
.model D D
.lib C:\users\brian\My Documents\LTspiceXVII\lib\cmp\standard.dio
.model NMOS NMOS
.model PMOS PMOS
.lib C:\users\brian\My Documents\LTspiceXVII\lib\cmp\standard.mos
.tran 1m startup
.lib LTC3859AL.sub
.backanno
.end
