* Z:\mnt\design.r\spice\examples\3869-2.asc
M쬞1 IN N002 N004 N004 FDS6680A
M쬞2 N004 N008 0 0 FDS6680A
C1 N004 N005 .1
D1 N001 N005 1N5817
C2 N001 0 4.7
L1 N004 OUT1 3.2 Rser=6m Rpar=2K
C3 N010 OUT1 .1
R1 N012 0 20K
R2 OUT1 N012 147K
C4 OUT1 0 47
C5 N014 0 470p Rser=15K
C6 N016 0 .001
V1 IN 0 10
M쬞3 IN N003 N007 N007 FDS6680A
M쬞4 N007 N009 0 0 FDS6680A
C7 N007 N006 .1
D2 N001 N006 1N5817
C8 N011 OUT2 .1
R3 N013 0 20K
R4 OUT2 N013 90.9K
C9 OUT2 0 56
L2 N007 OUT2 2.2 Rser=10m Rpar=2K
R5 OUT1 N020 20K
C10 N015 0 470p Rser=15K
C11 N017 0 .001
R6 N010 N004 2.2K
R7 N007 N011 2.2K
R8 N021 0 122K
XU1 N016 N010 OUT1 N012 N021 NC_01 N018 N014 0 N019 N015 N013 OUT2 N011 N017 N003 N007 N006 N009 0 N001 MP_02 N008 IN N005 N004 N002 N020 NC_03 LTC3869-2
Rload1 OUT1 0 1
Rload2 OUT2 0 .66
.model D D
.lib C:\users\brian\My Documents\LTspiceXVII\lib\cmp\standard.dio
.model NMOS NMOS
.model PMOS PMOS
.lib C:\users\brian\My Documents\LTspiceXVII\lib\cmp\standard.mos
.tran .6m startup
.lib LTC3869-2.sub
.backanno
.end
