* Z:\mnt\design.r\spice\examples\4054X-4.2.asc
CBAT OUT 0 10
R1 N003 0 1.5K
R2 N001 N002 330
D1 IN N001 NSCW100
V2 IN 0 PWL(0 0 20u 5)
XU1 N002 0 OUT IN N003 LTC4054X-4.2
.model D D
.lib C:\users\brian\My Documents\LTspiceXVII\lib\cmp\standard.dio
.tran 600
.lib LTC4054X-4.2.sub
.backanno
.end
