* Z:\mnt\design.r\spice\examples\4252C-2.asc
C1 N010 N005 .33
R1 N002 N001 5.1K
C2 N007 N010 .068
R2 0 N003 402K
R3 N003 N010 32.4K
C3 N006 N009 .01
R4 0 N001 5K
C4 N001 N010 1
C5 0 OUT 100
R5 0 OUT 50
C6 N003 N010 .01
R6 OUT N004 1Meg
R7 N008 N010 20m
V1 N010 0 -48
R8 N009 N010 10
M쬞1 OUT N006 N008 N008 IRF530
XU1 N001 N002 N007 N008 N010 N006 N004 N003 N003 N005 LTC4252A-2
.model NMOS NMOS
.model PMOS PMOS
.lib C:\users\brian\My Documents\LTspiceXVII\lib\cmp\standard.mos
.tran 1 startup
.lib LTC4252A-2.sub
.backanno
.end
