* Z:\mnt\design.r\spice\examples\4256-2.asc
XU1 N005 N008 N010 0 N009 N006 N002 N001 LT4256-2
R1 N001 N005 64.9K
R2 N005 0 8.06K
C1 N009 0 33n
C2 0 N007 10n
R3 N004 N006 10
R4 N007 N006 100
R5 N002 N001 20m
M§Q1 N002 N004 N003 N003 IRF530
R6 N003 N008 36.5K
R7 N008 0 4.02K
R8 N003 N010 27K
C3 N003 0 220µ
V1 N001 0 PWL(0 0 2.7m 0 2.701m 48)
C4 N005 0 .1µ
Rload N003 0 200g
.model NMOS NMOS
.model PMOS PMOS
.lib C:\users\brian\My Documents\LTspiceXVII\lib\cmp\standard.mos
.tran 25m
.lib LT4256-2.sub
.backanno
.end
