* Z:\mnt\design.r\spice\examples\4300A-1.asc
XU1 N001 N003 N002 0 N005 N002 N004 N001 LTC4300A-1
R1 N001 N003 10K
R2 N001 N004 10K
R3 N001 N005 10K
R4 N001 N002 10K
R5 N001 N002 10K
V1 N001 0 3.3
V2 N002 0 PULSE(0 3.3 0 10n 10n 50u 100u)
C1 N004 0 150p
C2 N003 0 300p
.tran 300u
.lib LTC4300A-1.sub
.backanno
.end
