* Z:\mnt\design.r\spice\examples\4440A-5.asc
V1 N001 0 5
V2 N002 0 PULSE(0 8 0 1n 1n 1u 2u)
XU1 N001 0 N002 0 N003 N001 LTC4440-5
.tran 50u
.lib LTC4440-5.sub
.backanno
.end
