* Z:\mnt\design.r\spice\examples\4600HV.asc
V1 IN 0 7
R1 N004 0 67K
R2 OUT N008 100K
Rload OUT 0 .15
XU1 N001 N006 N002 N003 N005 N007 N008 N004 0 0 OUT IN LTM4600
.tran 2.2m startup
.lib LTM4600.sub
.backanno
.end
