* Z:\mnt\design.r\spice\examples\4601A-1.asc
C1 OUT N004 100p
R1 N004 0 8.25K
R2 N008 0 392K
C2 OUT 0 100µ
R3 OUT N001 100K
R4 IN N002 100K
C3 N009 0 .001µ
V1 IN 0 15
Rload OUT 0 .625
XU1 IN 0 OUT MP_01 OUT MP_02 MP_03 0 N001 N004 N005 N007 N006 N011 N008 N003 N002 N009 N010 N005 LTM4601-1
R5 N011 0 100K
.tran 750u startup
.lib LTM4601-1.sub
.backanno
.end
