* Z:\mnt\design.r\spice\examples\4601HV.asc
C1 OUT N004 100p
R1 N004 0 40.2K
R2 N008 0 392K
C2 OUT 0 100µ
R3 IN N002 100K
R4 IN N003 100K
C3 N011 0 .001µ
V1 IN 0 6
Rload OUT 0 .25
XU1 IN 0 OUT 0 N006 N006 OUT 0 N002 N004 N007 N012 N010 N009 N008 N005 N003 N011 N001 N007 LTM4601
.tran 750u startup
.lib LTM4601.sub
.backanno
.end
