* Z:\mnt\design.r\spice\examples\4602HV.asc
V1 IN 0 12
R1 N004 0 31.6K
R2 OUT N008 100K
Rload OUT 0 .41
XU1 N001 N006 N002 N003 N005 N007 N008 N004 0 0 OUT IN LTM4602
.tran 2.5m startup
.lib LTM4602.sub
.backanno
.end
