* Z:\mnt\design.r\spice\examples\4604A.asc
V1 IN 0 3.3
R1 N003 0 2.37K
Rload OUT 0 0.625
C1 OUT 0 44µ
XU1 0 IN N004 N001 N003 N002 OUT IN LTM4604
.tran 1.2m startup
.lib LTM4604.sub
.backanno
.end
