* Z:\mnt\design.r\spice\examples\4608A.asc
V1 IN 0 3.6
C1 OUT 0 100µ
Rload OUT 0 .225
R2 N001 0 4.87K
XU1 OUT 0 NC_01 IN MP_02 NC_03 MP_04 MP_05 MP_06 NC_07 NC_08 NC_09 0 MP_10 MP_11 MP_12 MP_13 MP_14 MP_15 NC_16 NC_17 NC_18 MP_19 MP_20 MP_21 MP_22 MP_23 MP_24 N001 IN MP_25 NC_26 0 IN MP_27 MP_28 IN NC_29 LTM4608
.tran 200u startup
.lib LTM4608.sub
.backanno
.end
