* Z:\mnt\design.r\spice\examples\4622.asc
XU1 NC_01 OUT2 IN NC_02 NC_03 IN 0 NC_04 N002 NC_05 NC_06 OUT1 MP_07 MP_08 MP_09 MP_10 MP_11 MP_12 NC_13 MP_14 IN MP_15 MP_16 MP_17 MP_18 NC_19 NC_20 N001 LTM4622
V1 IN 0 12
R1 N002 0 40.2K
R2 N001 0 90.9K
C1 OUT1 0 47µ Rser=5m
Rload1 OUT1 0 .4
C2 OUT2 0 47µ Rser=5m
Rload2 OUT2 0 .6
.tran .5m startup
.lib LTM4622.sub
.backanno
.end
