* Z:\mnt\design.r\spice\examples\4630A.asc
C1 N003 0 4.7µ
R1 0 N002 75K
V1 IN 0 12
R2 IN N001 10K
C3 OUT 0 470µ V=6.3 Irms=1.816 Rser=0.05 Lser=0 mfg="KEMET" pn="T495X477K006AS4823" type="Tantalum"
C4 OUT 0 100µ V=6.3 Irms=3 Rser=0.015 Lser=0 mfg="Panasonic" pn="EEFUD0J101R" type="Al electrolytic"
R5 N006 0 60.4K
C5 N008 0 .002µ
C6 OUT 0 470µ V=6.3 Irms=1.816 Rser=0.05 Lser=0 mfg="KEMET" pn="T495X477K006AS4823" type="Tantalum"
C7 OUT 0 100µ V=6.3 Irms=3 Rser=0.015 Lser=0 mfg="Panasonic" pn="EEFUD0J101R" type="Al electrolytic"
Rload OUT 0 .033
D1 0 N001 1N750
XU1 N008 N007 N006 0 N006 N007 N008 OUT N004 OUT 0 N004 N001 OUT N005 NC_01 NC_02 0 NC_03 MP_04 MP_05 MP_06 MP_07 NC_08 N003 IN MP_09 MP_10 MP_11 MP_12 NC_13 NC_14 0 0 N002 MP_15 MP_16 N001 LTM4630A
.model D D
.lib C:\users\brian\My Documents\LTspiceXVII\lib\cmp\standard.dio
.tran .65m startup
.lib LTM4630A.sub
.backanno
.end
