* Z:\mnt\design.r\spice\examples\4650A.asc
C1 N001 0 4.7µ
V1 IN 0 12
R2 IN N002 10K
C4 OUT 0 220µ x3 V=6.3 Irms=3.2 Rser=0.012 Lser=0 mfg="KEMET" pn="T520V227M006ASE012" type="Tantalum"
R5 N005 0 13.3K
C5 N007 0 .001µ
Rload OUT 0 .066
D1 0 N002 1N750
C2 OUT 0 220µ x3 V=6.3 Irms=3.2 Rser=0.012 Lser=0 mfg="KEMET" pn="T520V227M006ASE012" type="Tantalum"
XU1 N007 N006 N005 0 N005 N006 N007 OUT N003 OUT 0 N003 N002 OUT N004 NC_01 NC_02 0 NC_03 MP_04 MP_05 MP_06 MP_07 NC_08 N001 IN MP_09 MP_10 MP_11 MP_12 NC_13 NC_14 0 0 N001 MP_15 MP_16 N002 LTM4650A
.model D D
.lib C:\users\brian\My Documents\LTspiceXVII\lib\cmp\standard.dio
.tran .4m startup
.lib LTM4650A.sub
.backanno
.end
