* Z:\mnt\design.r\spice\examples\6108-2.asc
V1 N001 0 12
R1 N001 N003 100
V2 N004 0 PWL(4u 0 4.01u 5)
R2 N001 N002 .1
I1 N002 0 PWL(10u 0 30u 500m 50u 0)
R3 N005 N008 6.04K
R5 N008 0 1.6K
V3 N006 0 3.3
R7 N006 N007 10K
C1 N002 0 .1µ
XU1 N002 N004 N007 0 N008 N005 N001 N003 LT6108-2
.tran 60u
.lib LTC5.lib
.backanno
.end
