* Z:\mnt\design.r\spice\examples\6200-10.asc
V1 +V 0 5
V2 -V 0 -5
XU1 0 N006 N007 +V -V NC_01 LT6200-10
R3 OUT N002 1K
R4 N002 N001 100
XU2 N005 N002 OUT +V -V NC_02 LT6200-10
R5 N001 N003 604
R6 N003 N004 49.9
XU3 IN- N003 N001 +V -V NC_03 LT6200-10
R7 0 N005 1K
R8 N005 N007 100
R2 N004 N006 49.9
C1 N004 0 150p
V3 IN- 0 AC 1
R1 N006 N007 604
.ac oct 10 1Meg 200Meg
* Rail-to-Rail High Speed Low Noise instrumentation Amplifier
.lib LTC2.LIB
.backanno
.end
