* Z:\mnt\design.r\spice\examples\6236.asc
V1 +V 0 5
V2 -V 0 -5
R1 N002 N001 5K
R2 N001 0 1K
V3 N003 0 SINE(0 .1 1K)
XU1 N003 N001 N002 +V -V NC_01 LT6236
.tran 3m
.lib LTC7.lib
.backanno
.end
