* Z:\mnt\design.r\spice\examples\6244HV.asc
V1 +V 0 5
V2 -V 0 -5
XU1 IN OUT +V -V OUT LTC6244
V3 IN 0 PULSE(-1 1 0 1n 1n 10u 20u)
.tran 100u
.lib LTC5.lib
.backanno
.end
