* Z:\mnt\design.r\spice\examples\6700-2.asc
V1 N001 0 5
V3 N002 0 PULSE(0 5 0 .5m .5m 0 1m)
XU1 N004 0 N002 N002 N001 N003 LT6700-2
R1 N001 N003 10K
R2 N001 N004 10K
.tran 3m
.lib LTC1.lib
.backanno
.end
