* Z:\mnt\design.r\spice\examples\6703-2.asc
XU1 N003 0 N002 N001 LT6703-2
V1 N001 0 5
V2 N002 0 PULSE(390m 410m 0 .5m .5m 0 1m)
R1 N001 N003 10K
.tran 3m
.lib LTC6.lib
.backanno
.end
