* Z:\mnt\design.r\spice\examples\6908-1.asc
XU1 N001 0 N004 0 N003 N002 LTC6908-1
V1 N001 0 5
R1 N001 N004 44.2K
.tran 20u
.lib LTC6908-1.sub
.backanno
.end
