* Z:\mnt\design.r\spice\examples\7151S.asc
V1 IN 0 12
R1 N006 0 162K
C1 N002 0 .001
C2 N003 0 4.7
L1 N004 OUT .25
R2 OUT N005 10K
R3 N005 0 10K
C4 N007 0 1n Rser=10K
C5 OUT 0 100
Rload OUT 0 1
R4 OUT N001 10K
XU1 N006 NC_01 0 N005 N002 N007 IN N001 MP_02 0 N004 MP_03 MP_04 MP_05 MP_06 MP_07 IN MP_08 IN MP_09 N003 MP_10 NC_11 0 LTC7151S
.tran 300u startup
.softstart 0 ; turn off internal softstart
.lib LTC7151S.sub
.backanno
.end
