* Z:\mnt\design.r\spice\examples\8049.asc
V1 IN 0 12
R1 N001 0 80.6K
R2 OUT1 N002 130K
Rload1 OUT1 0 24
R3 N004 0 80.6K
R4 OUT2 N005 143K
Rload2 0 OUT2 24
C1 OUT1 0 22µ Rser=5m
C2 0 OUT2 47µ Rser=7m
XU1 OUT1 IN NC_01 MP_02 NC_03 N002 N005 NC_04 MP_05 NC_06 IN MP_07 MP_08 NC_09 IN N004 NC_10 N003 0 NC_11 N001 IN N003 0 0 MP_12 0 OUT2 LTM8049
.tran 1.2m startup
.lib LTM8049.sub
.backanno
.end
