* Z:\mnt\design.r\spice\examples\8350S.asc
L1 N001 N002 2.2
R1 N007 N006 100k
R2 IN N004 499k
R3 N004 0 115K
C5 IN 0 10
V1 IN 0 PWL(0 0 100u 12 1m 12)
R6 OUT N005 110k
R7 N005 0 10k
C6 N003 0 4.7
R8 N003 OUT 30m
R9 N010 N009 3.9k
C7 0 N010 3.3n
C8 0 N011 10n
R10 0 N012 14.3k
C10 OUT 0 47
Rload OUT 0 6
XU1 MP_01 IN MP_02 MP_03 N004 N006 N006 N006 N008 NC_04 N003 OUT N008 N005 N009 N007 N011 N012 0 N013 0 NC_05 MP_06 N003 MP_07 MP_08 N002 MP_09 NC_10 NC_11 N001 MP_12 0 LT8350S
C1 0 N013 15p
.tran 5m startup
.lib LT8350S.sub
.backanno
.end
