* Z:\mnt\design.r\spice\examples\8607.asc
R1 N006 0 18.2K
C1 N004 0 .001µ
V1 IN 0 24
C2 N001 0 1µ
L1 N003 OUT 4.7µ Rser=3m
C3 N002 N003 0.1µ
C4 OUT 0 22µ V=6.3 Irms=0 Rser=0.002 Lser=0 mfg="TDK" pn="C4532X5ROJ47@M" type="X5R"
R2 OUT N005 1Meg
R3 N005 0 187K
C5 OUT N005 10p
Rload OUT 0 6.67
XU1 N002 N003 N001 N006 NC_01 N005 N004 NC_02 IN IN 0 LT8607
.tran 500u startup
.lib LT8607.sub
.backanno
.end
