* Z:\mnt\design.r\spice\examples\8642S.asc
XU1 NC_01 NC_02 0 IN MP_03 MP_04 NC_05 N001 MP_06 MP_07 MP_08 MP_09 MP_10 MP_11 MP_12 MP_13 IN N004 NC_14 NC_15 N005 N003 NC_16 N002 LT8642S
V1 IN 0 12
R1 N004 0 17.8K
C1 N005 0 1n
L1 N001 OUT .28µ
R2 N002 0 100K
C2 OUT 0 220µ x2
C3 N003 0 1n Rser=11K
C4 OUT N002 47p Rpar=100K
Rload OUT 0 .1
.tran 1m startup
.lib LT8642S.sub
.backanno
.end
