* Z:\mnt\design.r\spice\examples\8643S.asc
R1 N003 0 41.2K
V1 IN 0 24
L1 N004 OUT 3.3µ Rser=10m
C4 OUT 0 47µ V=6.3 Irms=0 Rser=0.002 Lser=0 mfg="TDK" pn="C4532X5ROJ47@M" type="X5R"
R2 OUT N006 1Meg
R3 N006 0 243K
C5 OUT N006 4.7p
Rload OUT 0 .833
C1 N005 0 1n
XU1 OUT NC_01 NC_02 IN NC_03 0 N002 N004 MP_04 0 MP_05 MP_06 IN IN N003 N005 NC_07 0 NC_08 N006 LT8643S
C6 N002 N001 330p
R4 N001 0 8.45K
.tran 1m startup
.lib LT8643S.sub
.backanno
.end
