* Z:\mnt\design.r\spice\examples\8648S.asc
R1 N005 0 41.2K
C1 N003 0 .001µ
V1 IN 0 24
L1 N006 OUT 3.3µ Rser=9m
R2 OUT N007 1Meg
R3 N007 0 137K
C5 OUT N007 10p
Rload OUT 0 1
C2 OUT 0 100µ Rser=6m
C3 0 N008 330p Rser=13.7K Cpar=10p
R4 N002 N001 100K
C4 N004 N006 .22µ
C6 N001 0 1µ
XU1 N004 N006 N001 N005 0 N007 N003 N002 N008 IN 0 IN NC_01 OUT LT8648S
.tran 1m startup
.lib LT8648S.sub
.backanno
.end
