* Z:\mnt\design.r\spice\examples\8650S.asc
XU1 N010 0 MP_01 IN1 MP_02 MP_03 IN2 MP_04 MP_05 MP_06 IN1 IN2 MP_07 NC_08 NC_09 0 NC_10 N002 MP_11 N004 MP_12 N003 MP_13 N001 N007 0 N007 N005 N008 N009 N006 N007 LT8650S
V1 IN1 0 24
L1 N003 OUT1 1µ Rser=10m
R1 N005 0 191K
C1 OUT1 N005 4.7p Rpar=1Meg
C2 OUT1 0 47µ x2 Rser=10m
C3 N008 0 470p
R2 N010 0 15K
V2 IN2 0 24
L2 N004 OUT2 1µ Rser=10m
R3 N006 0 316K
C4 OUT2 N006 4.7p Rpar=1Meg
C5 OUT2 0 47µ x2 Rser=10m
C6 N009 0 470p
C7 N007 0 1µ
Rload1 OUT1 0 2
Rload2 OUT2 0 1
C8 N001 N003 .1µ
C9 N002 N004 .1µ
.tran .4m startup
* fsw=2MHz
.lib LT8650S.sub
.backanno
.end
