* Z:\mnt\design.r\spice\examples\8652S.asc
V1 IN1 0 12
L1 N001 OUT1 1µ Rser=10m
R1 N003 0 222K
C1 OUT1 N003 10p Rpar=1Meg
C2 OUT1 0 47µ x3 Rser=10m
V2 IN2 0 12
L2 N002 OUT2 .33µ Rser=10m
R3 N004 0 1.5Meg
C4 OUT2 N004 10p Rpar=1Meg
C5 OUT2 0 47µ x4 Rser=10m
C7 N007 0 1n
Rload1 OUT1 0 .39
Rload2 OUT2 0 .12
XU1 N010 N007 N008 0 IN1 MP_01 MP_02 MP_03 IN2 MP_04 MP_05 MP_06 IN1 MP_07 NC_08 NC_09 0 NC_10 NC_11 N002 MP_12 MP_13 N001 MP_14 MP_15 NC_16 0 N005 N006 N009 N005 N003 0 0 N004 N005 LT8652S
C3 N006 0 1n
R2 N008 0 27.4K
C6 N005 0 1µ
R4 0 N010 4.02K
R5 N009 0 4.02K
.tran .4m startup
.lib LT8652S.sub
.backanno
.end
