* Z:\mnt\design.r\spice\examples\8705A.asc
XU1 N016 N009 N008 N018 N018 N017 0 N028 N025 N029 MP_01 N023 0 N003 N020 N012 N013 N015 N002 MP_02 N001 N014 N010 MP_03 N021 N024 N026 N022 OUT OUT OUT IN IN IN N020 N019 0 0 0 LT8705A
V8 IN 0 36
C13 IN 0 440µ Rser=30m
R14 N006 N014 2
R20 N004 N012 2
R21 N007 N015 2
R22 N005 0 10m
R23 N005 N008 10
R24 0 N009 10
C15 0 N008 1n
C16 N009 0 1n
C17 N001 N010 0.22µ
C18 N013 N002 0.22µ
C19 OUT 0 28.2µ
C20 OUT 0 440µ Rser=30m
R25 N020 N026 100K
R26 N020 N024 100K
R27 N020 N022 100K
R28 N020 N021 100K
R29 OUT N017 388K
R30 N017 0 10K
R31 N011 N020 4
C21 N020 0 2.2µ x2
C22 N018 0 1µ
R32 N019 N018 100K
R33 N016 IN 71.5K
R34 N016 0 20K
R35 0 N023 215K
C23 N027 0 3.3n
R36 N028 N027 56.2K
C24 N028 0 220p
C25 N025 0 5n
C26 0 IN 1µ
M§Q5 IN N006 N001 N001 IRLR2908
L2 N001 N002 22µ Rser=14.6m
M§Q6 N001 N003 N005 N005 IRLR2908
M§Q7 N002 N004 N005 N005 IRLR2908
M§Q9 OUT N007 N002 N002 IRLR2908
D5 N011 N010 MURS120
D6 N011 N013 MURS120
R37 OUT 0 48
.model D D
.lib C:\users\brian\My Documents\LTspiceXVII\lib\cmp\standard.dio
.model NMOS NMOS
.model PMOS PMOS
.lib C:\users\brian\My Documents\LTspiceXVII\lib\cmp\standard.mos
.tran 4m startup
.lib LT8705A.sub
.backanno
.end
