* Z:\mnt\design.r\spice\examples\AD4002.asc
V6 N006 0 5
V5 N001 0 1.8
V1 N002 0 PWL(0 0 100u 5)
R1 N003 N002 10
V4 N008 0 PWL(0 1.8 1.1u 1.8 +0.1u 0)
C1 0 N004 10p
V3 N007 0 PULSE(0 1.8 227n 0.1n 0.1n 40n 1u)
V2 N005 0 5
XU1 N006 N001 N003 Slew_Warning 0 N007 N005 N008 N004 AD4002
.tran 110u
* IN_SlewAlarm is a warning signal to\nalert user that the IN+ signal is slewing\ntoo fast. This appears in the model only.
.lib AD4002.sub
.backanno
.end
