* Z:\mnt\design.r\spice\examples\AD4003.asc
V7 N008 0 5
V6 N001 0 1.8
V1 N002 0 PWL(0 0 100u 5)
R1 N003 N002 10
V5 N010 0 PWL(0 1.8 1.1u 1.8 +0.1u 0)
C1 0 N004 10p
V4 N009 0 PULSE(0 1.8 227n 0.1n 0.1n 40n 1u)
V3 N007 0 5
V2 N005 0 PWL(0 5 100u 0)
R2 N006 N005 10
XU1 N008 N001 N003 Slew_Warning 0 N009 N007 N010 N004 N006 AD4003
.tran 110u
* IN_SlewAlarm is a warning signal to\nalert user that the IN+ or IN- signal is slewing\ntoo fast. This appears in the model only.
.lib AD4003.sub
.backanno
.end
