* Z:\mnt\design.r\spice\examples\AD8092.asc
XU1 IN N001 +V -V OUT AD8092
Vin IN 0 SINE(0 1 10Meg)
R1 N001 0 1K
R2 OUT N001 1K
Rload OUT 0 2K
V1 +V 0 5
V2 -V 0 -5
.tran 1u
.lib ADI.lib
.backanno
.end
