* Z:\mnt\design.r\spice\examples\AD8221.asc
V1 +V 0 15
Vin N001 N004 SINE(0 100m 10K)
R1 N002 N003 5.49K
V2 -V 0 -15
Rload OUT 0 10K
Vcm N004 0 1
Vref N005 0 .5
XU1 N004 N002 N003 N001 -V N005 OUT +V AD8221
.tran 1m
.lib ADI1.lib
.backanno
.end
