* Z:\mnt\design.r\spice\examples\AD8671.asc
Vin IN 0 SINE(0 1 100K)
R1 N001 0 1K
R2 OUT N001 1K
XU1 IN N001 +V -V OUT AD8671
Rload OUT 0 2K
V1 +V 0 15
V2 -V 0 -15
.tran 100u
.lib ADI.lib
.backanno
.end
