* Z:\mnt\design.r\spice\examples\AD8618.asc
Vin IN 0 SINE(0 1 500K)
R1 N001 0 1K
R2 OUT N001 1K
XU1 IN N001 +V -V OUT AD8618
Rload OUT 0 2K
V1 +V 0 5
V2 -V 0 -5
.tran 20u
.lib ADI.lib
.backanno
.end
