* Z:\mnt\design.r\spice\examples\AD8648.asc
V1 +V 0 2.5
Vin IN 0 SINE(0 1 1Meg)
R1 N001 0 10K
R2 OUT N001 10K
XU1 IN N001 +V -V OUT AD8648
V2 -V 0 -2.5
Rload OUT 0 10K
.tran 10u
.lib ADI.lib
.backanno
.end
