* Z:\mnt\design.r\spice\examples\AD8642.asc
Vin IN 0 SINE(0 1 100K)
R1 N001 0 10K
R2 OUT N001 10K
Rload OUT 0 10K
XU1 IN N001 +V -V OUT AD8642
V1 +V 0 12
V2 -V 0 -12
.tran 100u
.lib ADI.lib
.backanno
.end
