* Z:\mnt\design.r\spice\examples\ADA4661-2.asc
V1 +V 0 9
Vin IN 0 SINE(0 1 1K)
R1 N001 0 10K
R2 OUT N001 10K
V2 -V 0 -9
Rload OUT 0 10K
XU1 IN N001 +V -V OUT ADA4661-2
.tran 10m
.lib ADI1.lib
.backanno
.end
