* Z:\mnt\design.r\spice\examples\ADA4000-1.asc
V1 +V 0 15
Vin IN 0 SINE(0 1 500K)
R1 N001 0 10K
R2 OUT N001 10K
XU1 IN N001 +V -V OUT ADA4000
V2 -V 0 -15
.tran 20u
.lib ADI.lib
.backanno
.end
