* Z:\mnt\design.r\spice\examples\ADA4700-1.asc
V1 +V 0 25
Vin IN 0 SINE(0 10 1K)
R1 N001 0 10K
R2 OUT N001 10K
V2 -V 0 -25
Rload OUT 0 10K
XU1 IN N001 +V -V OUT ADA4700-1
.tran 10m
.lib ADI1.lib
.backanno
.end
