* Z:\mnt\design.r\spice\examples\ADA4807-1.asc
V1 +V 0 5
V2 IN 0 SINE(0 0.5 250K)
R1 N001 0 1K
R2 OUT N001 1K
XU1 IN N001 +V -V OUT NC_01 ADA4807-1
V3 -V 0 -5
.tran 50u
.lib ADI.lib
.backanno
.end
