* Z:\mnt\design.r\spice\examples\ADG1633.asc
V1 +V 0 8
V2 -V 0 -8
V3 N002 0 sine(0 5 1K)
V4 N004 0 pulse(0 3.3 0 1u 1u 5m 10m)
XU1 +V N003 N002 N001 MP_01 MP_02 MP_03 MP_04 MP_05 MP_06 MP_07 MP_08 -V NC_09 N004 0 ADG1633
R1 N001 0 1K
R2 N003 0 1K
.tran 30m
.lib ADG.lib
.backanno
.end
