* Z:\mnt\design.r\spice\examples\ADG1209.asc
V1 +V 0 15
V2 -V 0 -15
V3 N006 0 PULSE(3.3 0 0 1u 1u 5m 10m)
R1 N003 0 10K
V4 N007 0 PULSE(3.3 0 0 1u 1u 10m 20m)
V5 N002 0 SINE(0 5 2K)
V6 N005 0 SINE(0 5 4K)
V7 N001 0 SINE(0 5 1K)
V8 N004 0 SINE(0 5 3K)
XU1 N006 +V -V N001 N002 N004 N005 N003 MP_01 MP_02 MP_03 MP_04 +V 0 MP_05 N007 ADG1209
.tran 20m
.lib ADG1209.sub
.backanno
.end
