* Z:\mnt\design.r\spice\examples\ADM7171-1.3.asc
C2 N001 0 1n
V1 IN 0 2.3
Rload OUT 0 2
C1 OUT 0 4.7µ Rser=1.5m
XU1 IN OUT IN N001 OUT 0 ADM7171 Vref=1.3
.tran 5m startup
.lib ADM7171.sub
.backanno
.end
