* Z:\mnt\design.r\spice\examples\ADM7170-4.2.asc
C2 0 N001 1n
V1 IN 0 4.5
Rload OUT 0 15
C1 OUT 0 4.7µ Rser=1.5m
XU1 IN OUT IN N001 OUT 0 ADM7170 Vref=4.2
.tran 5m startup
.lib ADM7170.sub
.backanno
.end
