* Z:\mnt\design.r\spice\examples\ADM7171-3.0.asc
C2 N001 0 1n
V1 IN 0 3.5
Rload OUT 0 5
C1 OUT 0 4.7µ Rser=1.5m
XU1 IN OUT IN N001 OUT 0 ADM7171 Vref=3
.tran 5m startup
.lib ADM7171.sub
.backanno
.end
