* Z:\mnt\design.r\spice\examples\ADM7154-3.0.asc
V1 IN 0 3.9
C1 OUT 0 10
C2 N003 0 1
C3 N004 0 1
C4 N002 0 1
R1 IN N001 100K
Rload OUT 0 30
XU1 N004 OUT N002 0 N003 N003 N001 IN ADM7154_5 Vreg=3.6022 Vref=3.0158
.tran 5m startup
.lib ADM7154_5.sub
.backanno
.end
