* Z:\mnt\design.r\spice\examples\ADM7171-5.0.asc
C2 N001 0 1n
V1 IN 0 5.5
Rload OUT 0 8
C1 OUT 0 4.7µ Rser=1.5m
XU1 IN OUT IN N001 OUT 0 ADM7171 Vref=5
.tran 5m startup
.lib ADM7171.sub
.backanno
.end
