* Z:\mnt\design.r\spice\examples\ADP165-ADJ.asc
V1 IN 0 5
R1 OUT N002 230K
R2 N002 0 100K
C1 OUT 0 1µ
Rload OUT 0 330
V2 N001 0 PULSE(0 5 100u 50n 50n 2.5m)
XU1 IN 0 N001 OUT N002 ADP16xad
.tran 4m
.lib ADP16x.lib
.backanno
.end
