* Z:\mnt\design.r\spice\examples\ADP1614-650.asc
R1 N005 N004 12.1K
C1 N004 0 33n
R3 N003 0 10K
R4 OUT N003 71.5K
V1 IN 0 5
L1 IN N001 15µ Rser=200m
C2 OUT 0 35µ Rser=2m
C3 N005 0 10p
Rload OUT 0 20
D1 N001 OUT MBRS340
R2 N002 0 60.4K
XU1 N005 N003 IN 0 N001 IN N002 ADP1614-650
.model D D
.lib C:\users\brian\My Documents\LTspiceXVII\lib\cmp\standard.dio
.tran 4m startup
.lib ADP1614-650.sub
.backanno
.end
