* Z:\mnt\design.r\spice\examples\ADP1607-001.asc
V1 IN 0 0.9
Cout OUT 0 6µ Rser=2m
L1 IN N001 2.2µ Rser=22m
Rload OUT 0 22
R1 OUT N002 100K
R2 N002 0 60K
XU1 OUT N002 IN MP_01 N001 MP_02 IN MP_03 MP_04 MP_05 0 ADP1607-001
.tran 1.6m startup
.lib ADP1607-001.sub
.backanno
.end
