* Z:\mnt\design.r\spice\examples\ADP165-2.3.asc
V1 IN 0 5
C1 OUT 0 1µ
Rload OUT 0 230
V2 N001 0 PULSE(0 5 100u 50n 50n 2.5m)
XU1 IN 0 N001 OUT ADP16xfd K=434.8u
.tran 4m
.lib ADP16x.lib
.backanno
.end
