* Z:\mnt\design.r\spice\examples\ADP1621.asc
XU1 N007 IN IN IN N002 N003 N006 N008 MP_01 0 ADP1621
R1 N006 N005 3.65K
C1 N005 0 6.8n
R2 N007 0 34.8K
R3 N008 0 8.45K
R4 OUT N008 75K
R5 N004 0 18m
V1 IN 0 5
L1 IN N001 4.7µ Rser=100m
D1 N001 OUT MBRS130L
C2 OUT 0 4.7µ
R6 N004 N003 953
C3 N006 0 330p
M§Q1 N001 N002 N004 N004 BSC090N03MS
Rload OUT 0 100
.model D D
.lib C:\users\brian\My Documents\LTspiceXVII\lib\cmp\standard.dio
.model NMOS NMOS
.model PMOS PMOS
.lib C:\users\brian\My Documents\LTspiceXVII\lib\cmp\standard.mos
.tran 4.5m startup
.lib ADP1621.sub
.backanno
.end
