* Z:\mnt\design.r\spice\examples\ADP151-2.6.asc
V1 IN 0 5
Rload OUT 0 26
XU1 IN 0 IN MP_01 OUT ADP151-x.x T=1.6Meg
C1 OUT 0 1µ
.tran 500u startup
.lib ADP151-x.x.sub
.backanno
.end
