* Z:\mnt\design.r\spice\examples\ADP2109-2.3.asc
V1 IN 0 5
L1 N001 OUT 1µ
Rload OUT 0 5
C1 OUT 0 10µ
XU1 IN IN N001 OUT 0 ADP2109-x.x Rtop=288K
.tran .5m startup
.lib ADP2109-x.x.sub
.backanno
.end
