* Z:\mnt\design.r\spice\examples\ADP2120-2.5.asc
L1 N002 OUT 2.2µ
C1 OUT 0 20µ
R1 OUT N001 100K
V1 IN 0 5
Rload OUT 0 2.5
XU1 IN IN N002 0 0 OUT IN N001 IN IN ADP2120-2.5
.tran 1m
.lib ADP2120-2.5.sub
.backanno
.end
