* Z:\mnt\design.r\spice\examples\ADP2165.asc
C1 N009 0 2n
L1 N004 OUT .47µ Rser=6m
R3 OUT N006 10K
R4 N006 0 10K
C2 N003 N004 .1µ
C3 OUT 0 87µ Rser=2m
R1 N005 0 100K
C5 N007 0 820p
R2 N008 N007 27.4K
V1 IN 0 5
R5 OUT N001 100K
C4 N002 0 1µ
C6 N008 0 1p
Rload OUT 0 .3
XU1 N002 N005 N002 N006 0 0 N004 IN IN IN N001 N009 N008 N003 N002 ADP2165
.tran 1m startup
.lib ADP2165.sub
.backanno
.end
