* Z:\mnt\design.r\spice\examples\ADP2119-3.3.asc
L1 N002 OUT 1.5µ
C1 OUT 0 22µ
R1 OUT N001 100K
V1 IN 0 5
Rload OUT 0 3.3
XU1 IN IN N002 0 0 OUT IN N001 IN IN ADP2119-3.3
.tran 1m
.lib ADP2119-3.3.sub
.backanno
.end
