* Z:\mnt\design.r\spice\examples\ADP2139-2.5.asc
V1 IN 0 5
L1 N001 OUT 1µ Rser=60m
Rload OUT 0 5
C1 OUT 0 10µ
XU1 IN IN N001 OUT 0 IN ADP2139-x.x Rtop=320K
.tran .5m startup
.lib ADP2139-x.x.sub
.backanno
.end
