* Z:\mnt\design.r\spice\examples\ADP2108-3.0.asc
V1 IN 0 5
L1 N001 OUT 1µ
Rload OUT 0 8
C1 OUT 0 10µ
XU1 IN IN N001 OUT 0 ADP2108-x.x Rtop=400K
.tran .5m startup
.lib ADP2108-x.x.sub
.backanno
.end
