* Z:\mnt\design.r\spice\examples\ADP2118-ADJ.asc
L1 N002 OUT 1µ
C1 OUT 0 147µ
R1 OUT N001 100K
V1 IN 0 5
R2 OUT N003 13.5K
R3 N003 0 3K
Rload OUT 0 1.1
XU1 IN IN IN N003 0 0 N002 IN IN IN N001 ADP2118-x.x Rtop=10 Rbot=1T Ctop=4p
.tran 2m startup
.lib ADP2118-x.x.sub
.backanno
.end
