* Z:\mnt\design.r\spice\examples\ADP7104.asc
V1 IN 0 4.3
Rload OUT 0 12
C1 OUT 0 2.2µ Rser=3m
R1 OUT N002 17.4k
R2 N002 0 10K
R3 OUT N001 100k
XU1 IN N002 IN N001 OUT 0 ADP7104 Vref=1.22
.tran 3m startup
.lib ADP7102.lib
.backanno
.end
