* Z:\mnt\design.r\spice\examples\ADP7159-02.asc
V1 IN 0 3.0
C3 OUT 0 10
R1 N003 N005 66.5K
R2 N005 0 100K
C4 N003 0 1
C1 N004 0 1
C2 N002 0 1
R4 OUT 0 2.0
R3 IN N001 100K
XU1 OUT MP_01 OUT N002 N001 N005 N003 N004 IN 0 ADP7158_9 Vreg=2.611 Vref=1.216
.tran 5m startup
.lib ADP7158_9.sub
.backanno
.end
