* Z:\mnt\design.r\spice\examples\ADP7105-5.0.asc
C2 N002 0 2.7n
V1 IN 0 6
C1 OUT 0 2.2µ Rser=1.5m
Rload OUT 0 15
R1 OUT N001 100k
XU1 IN OUT IN N002 OUT 0 N001 ADP7105 Vref=5
.tran 6m startup
.lib ADP7102.lib
.backanno
.end
