* Z:\mnt\design.r\spice\examples\ADP7142-1.8.asc
C2 N001 0 4.7n
V1 IN 0 2.8
Rload OUT 0 10
C1 OUT 0 2.2µ Rser=1.5m
XU1 IN OUT IN N001 OUT 0 ADP7118 Vref=1.8
.tran 6m startup
.lib ADP7102.lib
.backanno
.end
