* Z:\mnt\design.r\spice\examples\ADP7118-5.0.asc
C2 N001 0 4.7n
V1 IN 0 6
Rload OUT 0 30
C1 OUT 0 2.2µ Rser=1.5m
XU1 IN OUT IN N001 OUT 0 ADP7118 Vref=5
.tran 6m startup
.lib ADP7102.lib
.backanno
.end
