* Z:\mnt\design.r\spice\examples\ADP7105-1.8.asc
C2 N002 0 2.7n
V1 IN 0 3.3
Rload OUT 0 10
C1 OUT 0 2.2µ Rser=1.5m
XU1 IN OUT IN N002 OUT 0 N001 ADP7105 Vref=1.8
R1 OUT N001 100k
.tran 6m startup
.lib ADP7102.lib
.backanno
.end
