* Z:\mnt\design.r\spice\examples\ADP7118-4.5.asc
C2 N001 0 4.7n
V1 IN 0 5.5
Rload OUT 0 30
C1 OUT 0 2.2µ Rser=1.5m
XU1 IN OUT IN N001 OUT 0 ADP7118 Vref=4.5
.tran 6m startup
.lib ADP7102.lib
.backanno
.end
