* Z:\mnt\design.r\spice\examples\ADP7102-2.5.asc
V1 IN 0 3.5
Rload OUT 0 12
C1 OUT 0 2.2µ Rser=1.5m
R1 OUT N001 100k
XU1 IN OUT IN N001 OUT 0 ADP7102 Vref=2.5
.tran 3m startup
.lib ADP7102.lib
.backanno
.end
