* Z:\mnt\design.r\spice\examples\LM308.asc
Q1 N019 2 3 0 NP
Q2 N019 3 2 0 NP
Q3 N017 2 N025 0 SB
Q4 N021 3 N026 0 SB
Q5 N028 N030 N031 0 SB
Q6 N008 N015 N017 0 SB
Q7 1 N015 N021 0 SB
R1 N026 N028 2K
R3 7 N007 20K
Q8 N012 N008 N004 0 PN
Q9 N008 N008 N006 0 PN
R4 7 N004 10K
R5 7 N006 20K
Q10 N011 1 N004 0 PN
Q11 1 1 N007 0 PN
R6 N031 N032 6.4K
R7 N025 N028 2K
R8 N019 N020 50K
R9 N030 N032 60K
Q12 N001 N027 N030 0 SB
Q14 4 N028 N020 0 PN
Q15 N012 N012 N014 0 NP
Q16 N011 N012 N014 0 NP
R2 7 N003 10K
Q17 N015 N001 N003 0 PN
Q18 N015 N015 N020 0 SB
R10 8 N011 5.6K
C1 8 1 10p
Q13 N001 N018 N022 0 SB
R11 N018 N027 940
R12 N032 N033 500
R13 N022 N033 20K
Q19 N027 N022 N033 0 NP
J1 N001 4 N018 NJ
R14 N033 4 1K
R15 N023 N022 20K
Q20 N001 N001 7 0 PN
Q21 N002 N001 7 0 PN
Q22 7 N002 N009 0 SB
Q23 N009 N011 N014 0 NP
R16 N002 N005 2K
Q24 N005 N002 N013 0 SB
Q25 4 N014 N013 0 PN
Q26 N005 N010 6 0 SB
Q27 7 N005 N010 0 SB
Q28 4 N014 N016 0 PN
R17 N010 N016 240
R18 N010 6 90
Q29 N014 N023 N029 0 SB
V1 7 0 +15
V2 4 0 -15
R19 N029 4 820
R20 6 2 10K
R21 2 0 1K
R22 3 N024 1K
V3 N024 0 SINE(0 1.2 1K)
.model NPN NPN
.model PNP PNP
.lib C:\users\brian\My Documents\LTspiceXVII\lib\cmp\standard.bjt
.model NJF NJF
.model PJF PJF
.lib C:\users\brian\My Documents\LTspiceXVII\lib\cmp\standard.jft
* IN-
* IN+
.tran 10m startup
.model NJ NJF
.model NP NPN(BF=125 Cje=.5p Cjc=.5p Rb=500)
.model PN LPNP(BF=25 Cje=.3p Cjc=1.5p Rb=250)
.model SB NPN(BF=5000 Cje=1p Cjc=1p Rb=500)
* This example schematic is supplied for informational/educational purposes only.
* OUT
* V+
* V-
.backanno
.end
