* Z:\mnt\design.r\spice\examples\LT3001.asc
V1 IN 0 24
L1 IN N002 40µ Rser=500m Cpar=1p
L2 0 N001 4.4µ Rser=20m Cpar=.2p
R3 N002 N003 154K
D1 N001 OUT MBRS360
C1 OUT 0 100µ V=10 Irms=2.2 Rser=0.025 Lser=0 mfg="KEMET" pn="T520V107M010ASE025" type="Tantalum"
Rload OUT 0 5
XU1 IN 0 N003 N002 IN LT3001
.model D D
.lib C:\users\brian\My Documents\LTspiceXVII\lib\cmp\standard.dio
K1 L1 L2 1
.tran 5m startup
.lib LT3001.sub
.backanno
.end
