* Z:\mnt\design.r\spice\examples\LT8392.asc
C1 N017 0 47n
C2 N020 0 27n
V1 IN 0 12
R1 N004 N005 1m
C3 N009 N004 .1µ
M§Q1 IN N002 N004 N004 BSC100N06LS3
M§Q2 N004 N007 0 0 BSC100N06LS3
L1 N005 N006 3µ Rser=3m
R2 N001 OUT 5m
M§Q3 N001 N003 N006 N006 BSC050NE2LS
M§Q4 N006 N008 0 0 BSC050NE2LS
C4 N006 N010 .1µ
R3 N019 0 226k
R4 OUT N016 110K
C5 N012 0 4.7µ
C6 N015 0 .47µ
R5 N016 0 10K
R6 _PGOOD N012 100K
R7 N011 0 100k
R8 IN N011 130k
C7 OUT 0 470µ Rser=15m
R9 N018 N020 12K
C8 IN 0 120µ x4
Rload OUT 0 1.5
C9 N001 0 470µ Rser=15m
R10 N017 N015 100K
XU1 N007 N009 N004 N002 N004 N005 IN N012 N011 0 N015 N015 N015 N013 N014 NC_01 _PGOOD N017 N016 N018 N019 0 N001 N001 N003 N006 N010 N008 0 LT8392
C10 N013 N014 1µ Rser=15m
R11 N013 N001 100
R12 N014 OUT 100
C11 N001 0 1µ
.model NMOS NMOS
.model PMOS PMOS
.lib C:\users\brian\My Documents\LTspiceXVII\lib\cmp\standard.mos
.tran 12m startup
* LT8392 - 60V Synchronous 4-Switch Buck-Boost Controller with Spread Sprectrum\nHigh Efficiency 96W (12V, 8A) Buck-Boost Regulator\nInput: 6V to 36V       Output: 12V @ 8A, Fsw = 200kHz
.lib LT8392.sub
.backanno
.end
