* Z:\mnt\design.r\spice\examples\LTC1998.asc
R1 N004 VHA 850k
R2 VHA VTHA 100k
R3 VTHA 0 50k
V2 N004 0 10
V3 VL 0 3
V1 N001 0 5
C§BATTERY BATT 0 500µ
R4 N002 N001 30k
S1 N002 BATT N003 0 CHARGER
C3 OUT 0 0.1µ
XU1 BATT 0 VTHA VHA VL OUT LTC1998
R6 N005 0 200k
S2 BATT N005 OUT 0 LOADSW
B1 N003 0 V=V(BATT)*V(OUT)/V(VL)
.tran 100 startup
.model CHARGER SW(Ron=1G Roff=1 Vt=2.1 Vh=2)
.model LOADSW SW(Ron=1 Roff=1G Vt=2.5)
.lib LTC1998.sub
.backanno
.end
