* Z:\mnt\design.r\spice\examples\LTC3308B.asc
L1 N002 OUT 150n Rser=3m
R1 OUT N003 56.2k
V1 IN 0 5
R2 N003 0 10k
C1 OUT 0 10µ Rser=2m
R4 OUT N001 500K
C3 OUT N003 6.8p
Rload OUT 0 0.85
XU1 IN IN N002 N003 0 0 IN N001 0 LTC3308B
.tran 1.5m startup
.lib LTC3308B.sub
.backanno
.end
