* Z:\mnt\design.r\spice\examples\LTC4238.asc
V1 IN 0 PWL(0 0 10u 0 1m 48)
R1 IN FLT# 93.1k
R2 FLT# OV 3.01k
R3 OV 0 4.22k
Rsns1 sense1- IN .2m
R6 N002 G1 10
R8 OUT VDSFB 360k
R9 OUT FB 62k
R10 FB 0 5.23k
R11 IntVcc N005 59k
R12 N005 0 44.2k
C2 IntVcc 0 .1
C3 tmrfet 0 1.5
C5 FLT# 0 .1
M1 sense1- N002 OUT OUT IPT015N10N5
R14 N003 G2 10
R5 N001 G1 10
M3 sense2- N003 OUT OUT PSMN7R6100BSE
R18 IntVcc PG 10k
Rsns2 sense2- IN 4m
M2 sense1- N001 OUT OUT IPT015N10N5
C4 tmr 0 180p
CL OUT 0 2400
S1 0 OUT PG 0 LD
XU1 sense1- IN sense2- IN IN MP_01 FLT# OV comm tmr tmrfet N005 N004 IntVcc IntVcc FB 0 FLT# PG MP_02 VDSFB OUT G2 G1 LTC4238
.model NMOS NMOS
.model PMOS PMOS
.lib C:\users\brian\My Documents\LTspiceXVII\lib\cmp\standard.mos
.tran 1
.model LD SW(Ron=4 Roff=1000 vt=.5 vh=-200m)
.lib LTC4238.sub
.backanno
.end
