* Z:\mnt\design.r\spice\examples\LTC6902.asc
XU1 PH DIV PH OUT1 OUT2 OUT3 OUT4 0 N001 N002 LTC6902
V1 PH 0 5
R1 PH N002 10K
R2 PH N001 10K
.tran .5m
.lib LTC6902.sub
.backanno
.end
