* Z:\mnt\design.r\spice\examples\LTM8083.asc
V1 IN 0 12
R6 OUT N002 100k
R7 N002 0 9.09k
C10 N001 0 10µ Rser=2m
C11 N001 OUT 0.1µ
C12 OUT N002 100p
C13 N005 0 2.2µ
R8 N001 OUT 0.1
R10 N007 0 14.3k
C14 N006 0 0.01µ
R13 IN N003 121k
R14 N003 0 61.9k
Rload OUT 0 24
R2 IN N004 590k
R3 N004 0 61.9k
XU1 IN MP_01 IN N005 N003 N004 0 MP_02 MP_03 NC_04 N001 OUT NC_05 MP_06 N006 N002 NC_07 N007 NC_08 MP_09 N001 MP_10 MP_11 MP_12 MP_13 MP_14 MP_15 MP_16 0 LTM8083
.tran 1.6m startup
.lib LTM8083.sub
.backanno
.end
