* Z:\mnt\design.r\spice\examples\LTZ1000.asc
XU2 N001 N006 +V 0 N004 LT1013
R1 OUT N002 70K
R2 N009 0 120
R3 N004 N003 1K
Q1 +V N003 N005 0 2N3904
V1 +V 0 15
C1 N010 N005 .1µ
R4 N006 N010 1Meg
D1 N011 0 1N4148
D2 N008 OUT 1N4148
R5 OUT N001 70K
R6 N007 N006 10K
R7 OUT N007 13K
R8 N007 0 1K
C2 N002 0 .002µ
C3 N001 0 .1µ
R9 N009 N005 {R}
XU1 N005 N011 OUT N009 N002 N007 0 N001 LTZ1000
XU3 N002 N009 +V 0 N008 LT1013
.model D D
.lib C:\users\brian\My Documents\LTspiceXVII\lib\cmp\standard.dio
.model NPN NPN
.model PNP PNP
.lib C:\users\brian\My Documents\LTspiceXVII\lib\cmp\standard.bjt
.tran 1000 startup
.meas out param V(out) ; final value of V(out)
.options numdgt=15 measdgt=10 plotwinsize=0
.temp -30 -20 -10 0 10 20 30 40
.step param R list 300K 400K 500K
* A lengthy .tran often gives more accurate DC information than a .op.\nTo see drift vs temp, type Ctrl-L, right click=>Plot .step'ed .meas data\nDrift is minimal for R=400K
.lib LTC.lib
.lib LTZ1000.lib
.backanno
.end
