* Z:\mnt\design.r\spice\examples\OP113.asc
V1 +V 0 15
Vin IN 0 SINE(0 1 10K)
R1 N001 0 10K
R2 OUT N001 10K
XU1 IN N001 +V -V OUT OP113
V2 -V 0 -15
Rload OUT 0 10K
.tran 1m
.lib ADI.lib
.backanno
.end
