* Z:\mnt\design.r\spice\examples\OP27.asc
V1 +V 0 15
Vin IN 0 SINE(0 1 10K)
R1 N001 0 1K
R2 OUT N001 1K
V2 -V 0 -15
Rload OUT 0 10K
XU1 IN N001 +V -V OUT OP27
.tran 1m
.lib ADI.lib
.backanno
.end
