* Z:\mnt\design.r\spice\examples\OP296.asc
V1 +V 0 5
Vin IN 0 SINE(0 1 10K)
R1 N001 0 10K
R2 OUT N001 10K
XU1 IN N001 +V -V OUT OP296
V2 -V 0 -5
Rload OUT 0 10K
.tran 1m
.lib ADI.lib
.backanno
.end
