* Z:\mnt\design.r\spice\examples\OP727.asc
V1 +V 0 15
Vin IN 0 SINE(0 1 1K)
R1 N001 0 10K
R2 OUT N001 10K
XU1 IN N001 +V -V OUT OP727
V2 -V 0 -15
Rload OUT 0 10K
.tran 10m
.lib ADI.lib
.backanno
.end
