* Z:\mnt\design.r\spice\examples\P2.asc
Q2 N014 N007 N002 0 2N344
R1 N001 N002 15K
R2 N014 N020 4.7K
R4 N020 N026 2.2K
V1 N001 0 15
V2 N026 0 -15
C2 0 N020 .01
C3 0 N002 .01
R5 N001 N003 15K
R6 N015 N021 4.7K
R7 N008 0 1K
R8 N021 N026 2.2K
C4 0 N021 .01
C5 0 N003 .01
R13 N001 N004 15K
R14 N016 N022 4.7K
R15 N009 0 1K
R16 N022 N026 2.2K
C10 0 N022 .01
C11 0 N004 .01
R9 N001 N005 15K
R10 N017 N023 4.7K
R11 N010 0 1K
R12 N023 N026 2.2K
C12 0 N023 .01
C13 0 N005 .01
C6 N008 N014 .01
C7 N009 N015 .01
C8 N010 N016 .01
C9 N018 N017 7.5p
Q3 N015 N008 N003 0 2N344
Q4 N016 N009 N004 0 2N344
Q5 N017 N010 N005 0 2N344
R18 N010 0 2K
C14 N005 N001 .01
Q7 N018 N012 N001 0 2N344
D1 N001 N001 1N2326
C16 N001 N001 .01
C17 N011 N001 .01
L1 N011 N012 51 Rser=1
L2 N018 N013 51 Rser=1
C15 N012 N011 20p
R17 N011 0 10K
D2 N001 N011 1N2326
Q6 N024 N013 N019 0 2N597
R19 N001 N019 10K
L3 N001 N019 12.5m
D3 N024 N025 1N484
R20 OUT N026 3.6K
R21 N025 OUT 390
C18 N013 N001 .001
C19 N006 N001 .47
R22 N006 N013 90
Q1 N042 N031 N027 0 2N274
R23 N001 N027 10K
C20 N027 N001 .01
R24 N031 0 1K
C21 0 N031 150p
R25 N042 N043 3.3K
R26 N043 N026 1K
C22 0 N043 .01
C23 N042 N041 200p
C24 N031 N028 25p
C25 N041 N028 100p
C26 N028 0 100p
L4 0 N028 1
L5 N041 0 1
L6 N035 N040 1
L7 N030 N035 1
C27 N040 N030 120p
R27 N030 N029 4.7K
R28 N040 N039 4.7K
R29 N029 N035 330
R30 N035 N039 330
D4 N029 N034 V47
D5 N034 N039 V47
D6 N039 N033 V47
D7 N033 N029 V47
L8 N037 N033 1
L9 N034 N037 1
L10 0 N007 1
L11 N038 0 1
R31 N037 -IN 330
R32 N035 0 47
C28 0 -IN 100p
C29 N038 N007 120p
R33 N007 N036 {x*50K}
R34 N036 N038 {(1-x)*50K}
C30 N036 N032 7.5p
C31 N038 N032 10p
C32 N038 N032 7.5p
C33 N044 N038 10p
C34 N044 N038 7.5p
C35 N041 N044 10p
C36 N041 N044 7.5p
C37 N032 N028 7.5p
C38 N032 N028 10p
C1 0 N032 {y*3p}
C39 N044 0 {(1-y)*3p}
C40 N012 N041 25p
I1 0 N031 SINE( 0 100u 5Meg 0 0 0 1)
I2 N013 0 PWL( 0 40u 10u 0)
V3 N045 0 PULSE(-100m 100m 0 .1m .1m .5m 1.2m)
R3 OUT -IN 100K
R35 -IN N045 10K
Cstray N038 N016 .05p
.model D D
.lib C:\users\brian\My Documents\LTspiceXVII\lib\cmp\standard.dio
.model NPN NPN
.model PNP PNP
.lib C:\users\brian\My Documents\LTspiceXVII\lib\cmp\standard.bjt
.model V47 D(Is=3p Cjo=105p)
.model 1N2326 D(Is=7.8u Rs=3 Cjo=4p Eg=.67)
.model 1N484 D(Rs=3 Cjo=4p type=silicon)
.model 2N344 PNP(Is=1e-10 bf=11 Vaf=15 Cje=5p Cjc=2.5p Tf=3n
+ Eg=.67 Rb=100 Re=10)
.tran 1.2m
K1 L4 L5
+ L6 L7 1
K2 L8 L9
+ L10 L11 1
.param x=.735
.param y=.49
* George A. Philbrick Researches, Inc. P2 All Solid State Differential Operational Amplifier
* This example schematic is supplied for\ninformational/educational purposes only.
* www.philbrickarchive.org
* Gain Adj.
* Offset Adj.
.model 2N274 PNP(Is=1e-10 bf=20 Vaf=10 Cje=25p  Cjc=25p Eg=.67)
.model 2N597 PNP(Is=1e-10 bf=50 Vaf=10 Cje=50p  Cjc=10p Eg=.67)
.backanno
.end
