* Z:\mnt\design.r\spice\examples\Pierce.asc
C쬨1 N002 N001 0.25p Rser=0.1 Lser=0.001 Cpar=5e-011
J1 N004 N001 N006 2N5484
C3 N002 N004 200p
C2 N002 0 100p
C1 0 N001 25p
R1 N001 0 100K
V1 N005 0 10.
D1 0 N001 1N4148
L2 0 N007 6
L3 N003 0 6
L1 N004 N005 12
D3 N003 OUT 1N4148
D4 N007 OUT 1N4148
C5 OUT 0 10p
L4 OUT 0 6.3
R2 N006 0 100
.model D D
.lib C:\users\brian\My Documents\LTspiceXVII\lib\cmp\standard.dio
.model NJF NJF
.model PJF PJF
.lib C:\users\brian\My Documents\LTspiceXVII\lib\cmp\standard.jft
.tran 1.5m startup
K1 L1 L2 L3 1.
* This example schematic is supplied for informational/educational purposes only.
.backanno
.end
