* Z:\mnt\design.r\spice\examples\PLL2.asc
A1 IN 0 0 0 0 0 N001 0 MODULATOR mark=1.1K space=.9K
A3 N003 0 0 0 0 0 N004 0 MODULATOR mark=1.1K space=.9K
A4 signal 0 0 0 0 0 out 0 SCHMITT Vt=.5 Vh=100m
E2 signal 0 N003 0 Laplace=1./(1+.0007*s)**3
E1 N002 0 N001 0 Laplace={w0/Q}*s /(s*s + {w0/Q}*s + {w0*w0}) window=.1 nfft=4096
B1 IN 0 V=rand(time*250) >= .5
A5 N002 N004 0 0 0 0 N003 0 PHASEDET Iout=15u Vlow=-.5 Vhigh=2.5 Ref=0
C2 N005 0 .0025µ
R1 N003 N005 1K
.tran 0 300m 10m
.params w0=2*pi*1K Q=5
;.options baudrate=250 delay=1.4m
* This example schematic is supplied for informational/educational purposes only.
.backanno
.end
