* Z:\mnt\design.r\spice\examples\SOAtherm-Tutorial.asc
R1 N001 N002 5.7m
R2 N001 N007 49.9K
R3 N008 N007 1.74K
R4 N008 0 2.67K
R5 OUT N006 43.5K
R6 0 N006 3.57K
R7 OUT N009 24K
C1 N012 0 .1µ
C2 N013 0 68n
C3 OUT 0 220µ
R8 0 OUT {Rload}
R9 N003 N005 10
V1 N011 0 PWL(0 3.1 1 3.1 1.0001 0 1.2 0 1.20001 0)
R10 N004 N005 100K
C4 N004 0 10n
C5 N007 0 0.1µ
XU1 N002 N001 MP_01 N007 N008 0 N010 MP_02 MP_03 MP_04 MP_05 N013 MP_06 N011 MP_07 MP_08 MP_09 N006 N012 N009 MP_10 MP_11 OUT N005 LTC4260 uvautoretry=1 ovautoretry=1 ocautoretry=1
V2 N010 0 PWL(0 0 1u 3.1 1 3.1 1.0001 3.1)
V3 N001 0 PWL(0 0 10u 0 100u 60 1.8 60 +0.1m 60)
M§Q1 N002 N003 OUT OUT PSMN4R8100BSE
.model NMOS NMOS
.model PMOS PMOS
.lib C:\users\brian\My Documents\LTspiceXVII\lib\cmp\standard.mos
.tran 2.5
.options SOAaccounting=1 ; turns on SOA accouting for MOSFETs that include thermal data
* simulate board detection
.param Rload=10
.step param Rload list 1 10 50 100
.lib LTC4260.sub
.backanno
.end
