* Z:\mnt\spice-netlists\LT1086_TA14.asc
R1 OUT N001 121
R2 N001 0 365
V1 IN 0 PWL(0 0 1 25) Rser=0.1
C1 OUT 0 150µ
XU1 N001 OUT IN LT1086
C2 IN 0 10µ
C3 N001 0 10µ
Rload OUT 0 3.3
.tran 1
* LT1086 - 1.5A Adjustable Low Dropout Positive Regulators \n5V, 1.5A Regulator with Improved Ripple Rejection\nInput: 6.5V to 17V     Output: 5V @ 1.5A
* Notes: \n  If the simulation model is not found please update with the "Sync Release" command from the "Tools" menu.\n  It remains the customer's responsibility to verify proper and reliable operation in the actual application.\n  Component substitution and printed circuit board layout may significantly affect circuit performance or reliability.\n  Contact your local sales representative for assistance. This circuit is distributed to customers only for use with LTC parts.\n  Copyright © 2012 Linear Technology Inc.  All rights reserved.
.lib LT1083.lib
.backanno
.end
