* Z:\mnt\spice-netlists\LT1078_TA08.asc
V1 +V 0 5
R1 N002 N001 200K
R2 N001 IN 200K
V3 IN 0 SINE(0 1 100)
XU1 0 N001 +V 0 N003 LT1078
D1 N003 N002 1N4148
XU2 N002 OUT +V 0 OUT LT1078
.model D D
.lib C:\users\brian\My Documents\LTspiceXVII\lib\cmp\standard.dio
.tran 30m
* LT1078 - µPower, Dual, Single Supply, Precision Op Amps\nAbsolute Value Circuit (Full-Wave Rectifier)\nInput: ±3.5V     Output:±3.5V, Vout(min) = 4mV, no distortion to 100Hz
* Notes:\n  If the simulation model is not found please update with the "Sync Release" command from the "Tools" menu.\n  It remains the customer's responsibility to verify proper and reliable operation in the actual application.\n  Component substitution and printed circuit board layout may significantly affect circuit performance or reliability.\n  Contact your local sales representative for assistance. This circuit is distributed to customers only for use with LTC parts.\n  Copyright © 2014 Linear Technology Inc. All rights reserved.
.lib LTC.lib
.backanno
.end
