* Z:\mnt\spice-netlists\LT1158_F18.asc
V1 IN 0 12
V2 N004 0 PULSE(0 3.3 1.2 20n 20n .25 .5 4)
XU1 N001 IN MP_01 N006 N007 N004 0 N008 N008 MP_02 OUT N005 N005 N003 N003 N002 LT1158
D1 N001 N002 1N4148
M§Q1 IN N003 N005 N005 IRF1010E
C1 N005 N002 .1µ
R1 N005 OUT 30m
Rload OUT 0 4.6
C3 N006 0 10µ
C4 IN 0 10µ
C5 IN 0 1m
R2 N007 N006 6.2K
D2 0 OUT B530C
.model D D
.lib C:\users\brian\My Documents\LTspiceXVII\lib\cmp\standard.dio
.model NMOS NMOS
.model PMOS PMOS
.lib C:\users\brian\My Documents\LTspiceXVII\lib\cmp\standard.mos
.tran 3 startup
* LT1158 - Half Bridge N-Channel Power MOSFET Driver\nHigh Current Lamp Driver with Short-Circuit Protection
* Notes:\n  If the simulation model is not found please update with the "Sync Release" command from the "Tools" menu.\n  It remains the customer's responsibility to verify proper and reliable operation in the actual application.\n  Component substitution and printed circuit board layout may significantly affect circuit performance or reliability.\n  Contact your local sales representative for assistance. This circuit is distributed to customers only for use with LTC parts.\n  Copyright © 2014 Linear Technology Inc. All rights reserved.
.lib LT1158.sub
.backanno
.end
