* Z:\mnt\spice-netlists\LT1117_TA10.asc
XU1 N001 OUT IN LT1117
R1 OUT N001 121
R2 N001 0 365
C1 OUT 0 150µ Rser=10m
C2 IN 0 10µ
V1 IN 0 PWL(0 0 1 20)
Rload OUT 0 6.25
C3 N001 0 10µ
D1 OUT IN 1N4148
.model D D
.lib C:\users\brian\My Documents\LTspiceXVII\lib\cmp\standard.dio
.tran 1 startup
* LT1117 - 800mA Low Dropout Positive Regulators\n5V Regulator with Improved Ripple Rejection\nInput: 6V to 20V     Output: 5V @ 800mA
* Note:\n  If the simulation model is not found please update with the "Sync Release" command from the "Tools" menu.\n  It remains the customer's responsibility to verify proper and reliable operation in the actual application.\n  Component substitution and printed circuit board layout may significantly affect circuit performance or reliability.\n  Contact your local sales representative for assistance. This circuit is distributed to customers only for use with LTC parts.\n  Copyright © 2012 Linear Technology Inc. All rights reserved.
.lib LT1117.lib
.backanno
.end
