* Z:\mnt\spice-netlists\LT1129-5_TA01.asc
V1 IN 0 PWL(0 0 1 30)
Rload OUT 0 100
C1 OUT 0 3.3µ Rser=40m
XU1 OUT OUT 0 IN IN LT1129-5
.tran 1
* LT1129-5 - Micropower Low Dropout Regulators with Shutdown\n5V Regulator with Shutdown\nInput: 5.5V to 30V     Output: 5V @ 500mA
* Note:\n  If the simulation model is not found please update with the "Sync Release" command from the "Tools" menu.\n  It remains the customer's responsibility to verify proper and reliable operation in the actual application.\n  Component substitution and printed circuit board layout may significantly affect circuit performance or reliability.\n  Contact your local sales representative for assistance. This circuit is distributed to customers only for use with LTC parts.\n  Copyright © 2012 Linear Technology Inc. All rights reserved.
.lib LT1129.lib
.backanno
.end
