* Z:\mnt\spice-netlists\LT1170_TA01.asc
V1 IN 0 5
C1 N004 0 1µ
R1 N003 N004 1K
R2 N002 0 1.24K
R3 OUT N002 10.7K
D1 N001 OUT MBRS360
L1 IN N001 50µ Rser=0.02 Rpar=5000
XU1 N003 N002 0 N001 IN LT1170
C2 OUT 0 1000µ Rser=0.05
C3 IN 0 100µ Rser=0.05
Rload OUT 0 12
.model D D
.lib C:\users\brian\My Documents\LTspiceXVII\lib\cmp\standard.dio
.tran 20m startup
* LT1170 - 100kHz, 5A High Efficiency Switching Regulators\nInput: 5V       Output: 12V @ 1A
* Note:\n  If the simulation model is not found please update with the "Sync Release" command from the "Tools" menu.\n  It remains the customer's responsibility to verify proper and reliable operation in the actual application.\n  Component substitution and printed circuit board layout may significantly affect circuit performance or reliability.\n  Contact your local sales representative for assistance. This circuit is distributed to customers only for use with LTC parts.\n  Copyright © 2011 Linear Technology Inc. All rights reserved.
.lib LT1170.sub
.backanno
.end
