* Z:\mnt\spice-netlists\LT1249_TA01.asc
XU1 0 N010 N001 N004 N005 N007 N008 N011 LT1249
M쬞1 N003 N011 0 0 SUD40N10-25
R1 N006 N007 330K
C1 N005 N007 .047
C2 N005 N006 .47
V2 N008 0 17
R2 N010 N009 10K
C3 N010 0 10p
C4 N009 0 100p
L1 N002 N003 750
R3 N002 N004 1Meg
C5 N004 0 4700p
D1 N003 OUT MUR460
C6 OUT 0 180
D2 + N002 1N4001
D3 N001 - 1N4001
D4 N001 + 1N4001
D5 - N002 1N4001
R4 N001 0 .2
V1 + - SINE(0 165 100)
R5 N007 0 20K
R6 OUT N007 1Meg
Rload OUT 0 2K
.model D D
.lib C:\users\brian\My Documents\LTspiceXVII\lib\cmp\standard.dio
.model NMOS NMOS
.model PMOS PMOS
.lib C:\users\brian\My Documents\LTspiceXVII\lib\cmp\standard.mos
.tran 300m startup
.model 1N4001 D
* LT1249 - Power Factor Controller\nActive Power Factor Correction for Universal Offline Power Systems\nInput: 90VAC to 270VAC     Output: 400VDC
* Notes:\n  If the simulation model is not found please update with the "Sync Release" command from the "Tools" menu.\n  It remains the customer's responsibility to verify proper and reliable operation in the actual application.\n  Component substitution and printed circuit board layout may significantly affect circuit performance or reliability.\n  Contact your local sales representative for assistance. This circuit is distributed to customers only for use with LTC parts.\n  Copyright  2014 Linear Technology Inc. All rights reserved.
* P\nReal Power (W)
* Real Power = P = V x I\nApparent Power = |S| = Vrms x Irms\nPower Factor = P/ |S|
* Reactive\nPower\n(VAR)
* Complex Power (VA)\nS
* ; Simulator and Save Options:\n.options plotwinsize=0 numdgt=15 \n.save V(+,-) I(V1)\n \n ; Power Factor Calulation:\n.meas start param 300ms\n.meas end param 400ms\n.meas P AVG -V(+,-)*I(V1) from start to end\n.meas Vrms RMS V(+,-) from start to end \n.meas Irms RMS I(V1) from start to end \n.meas S param Vrms*Irms\n.meas PF param P/S
.lib LT1249.sub
.backanno
.end
