* Z:\mnt\spice-netlists\LT1374HV.asc
C1 N001 N002 .27µ
L1 N002 OUT 5µ
R1 OUT N004 5.36K
R2 0 N004 4.99K
D1 0 N002 MBR735
D2 OUT N001 1N914
V1 IN 0 12
C2 N006 N005 4700p
C3 OUT 0 100µ
R3 N006 0 10K
XU1 IN N001 N004 0 OUT N005 N003 N002 LT1374 top=10 bot=1T
R4 OUT 0 1.33
.model D D
.lib C:\users\brian\My Documents\LTspiceXVII\lib\cmp\standard.dio
.tran 500u startup
* LT1374HV - 4.5A, 500kHz Step-Down Switching Regulator\nInput: 12V       Output: 5V @ 3.75A
* Note:\n  If the simulation model is not found please update with the "Sync Release" command from the "Tools" menu.\n  It remains the customer's responsibility to verify proper and reliable operation in the actual application.\n  Component substitution and printed circuit board layout may significantly affect circuit performance or reliability\n  Contact your local sales representative for assistance. This circuit is distributed to customers only for use with LTC parts\n  Copyright © 2006 Linear Technology Inc. All rights reserved.
.lib LT1374.sub
.backanno
.end
