* Z:\mnt\spice-netlists\LT1567_DN291_F02.asc
XU1 OUT1 N001 N002 0 N003 OUT1 OUT2 +V LT1567
R1 N001 +IN 200
R2 OUT1 N001 200
V1 +V 0 12
V3 +IN 0 SINE(2.5 2 100K)
V5 N003 0 2.5
C1 N002 0 .1µ
.tran .1m
* LT1567 - 1.4nV/Rt.Hz 180MHz Filter Building Block\nSingle-Ended Input to Differential Output Amplifier
* Note:\n  If the simulation model is not found please update with the "Sync Release" command from the "Tools" menu.\n  It remains the customer's responsibility to verify proper and reliable operation in the actual application.\n  Component substitution and printed circuit board layout may significantly affect circuit performance or reliability\n  Contact your local sales representative for assistance. This circuit is distributed to customers only for use with LTC parts\n  Copyright © 2015 Linear Technology Inc. All rights reserved.
.lib LTC4.lib
.backanno
.end
