* Z:\mnt\spice-netlists\LT1521-5_TA01.asc
V1 IN 0 PWL(0 0 1 10)
C1 OUT 0 1.5µ
Rload OUT 0 16.7
XU1 OUT OUT 0 MP_01 N001 MP_02 MP_03 IN LT1521-5
C2 IN 0 1µ
.tran 1
* LT1521-5 - 300mA Low Dropout Regulators with µPower Quiescent Current and Shutdown\n5V Battery-Powered Supply with Shutdown\nInput: 6V to 20V     Output: 5V @ 300mA
* Note:\n  If the simulation model is not found please update with the "Sync Release" command from the "Tools" menu.\n  It remains the customer's responsibility to verify proper and reliable operation in the actual application.\n  Component substitution and printed circuit board layout may significantly affect circuit performance or reliability.\n  Contact your local sales representative for assistance. This circuit is distributed to customers only for use with LTC parts.\n  Copyright © 2012 Linear Technology Inc. All rights reserved.
.lib LT1521.lib
.backanno
.end
