* Z:\mnt\spice-netlists\LT1584-33_TA01.asc
V1 IN 0 PWL(0 0 1 7)
C1 OUT 0 22µ
Rload OUT 0 .5
XU1 0 OUT IN LT1584-3.3
C2 IN 0 1µ
.tran 1
* LT1584-3.3 - 7A Low Dropout Fast Response Positive Regulator\n3.3V, 7A Regulator\nInput: 4.75V to 7V      Output: 3.3V @ 7A
* Notes:\n  If the simulation model is not found please update with the "Sync Release" command from the "Tools" menu.\n  It remains the customer's responsibility to verify proper and reliable operation in the actual application.\n  Component substitution and printed circuit board layout may significantly affect circuit performance or reliability.\n  Contact your local sales representative for assistance. This circuit is distributed to customers only for use with LTC parts.\n  Copyright © 2013 Linear Technology Inc. All rights reserved.
.lib LT1584.lib
.backanno
.end
