* Z:\mnt\spice-netlists\LT1637_LT1468_LT5400_DC2135A_SARADCDriver_2.asc
XU1 N001 N002 +15V -15V N002 LT1468
V1 +15V 0 15
V2 -15V 0 -15
R1 N003 N004 20k
R2 N004 N008 20k
R3 REF N006 499
R4 N006 0 499
R5 CM N004 10k
V3 REF 0 5
C1 N001 0 3300p
R6 IN N001 49.9
C2 N006 0 10
V4 IN 0 SINE(0 10 100)
XU2 N006 N004 +15V -15V CM -15V LT1637
R7 N002 N003 10
R8 CM N005 10
R9 CM N007 10
R10 N008 0 10
C3 N003 0 .01
C4 N008 0 .01
XU3 N003 N005 N007 N008 OUT- OUT- OUT+ OUT+ NC_01 LT5400-4
.tran 20m
* LT1637 - 1.1MHz, 0.4V/탎 Over-The-Top Micropower, Rail-To-Rail Input and Output Op Amp\nLT1468 - 90MHz, 22V/탎 16-Bit Accurate Operational Amplifier\nLT5400 - Quad Matched Resistor Network\n10V Single-Ended to 5V Fully Differential ADC Driver using Matched Resistors
* Notes: \n  If the simulation model is not found please update with the "Sync Release" command from the "Tools" menu.\n  It remains the customer's responsibility to verify proper and reliable operation in the actual application.\n  Component substitution and printed circuit board layout may significantly affect circuit performance or reliability.\n  Contact your local sales representative for assistance. This circuit is distributed to customers only for use with LTC parts.\n  Copyright  2014 Linear Technology Inc.  All rights reserved.
.lib LT5400.lib
.lib LTC.lib
.backanno
.end
