* Z:\mnt\spice-netlists\LT1715_LTJ2002MARF10.asc
V1 +V 0 5
V3 IN 0 SINE(2.5 2.3 10K)
XU2 N004 N003 +V 0 +V 0 OUT LT1715
XU1 N001 N003 +V 0 +V 0 N002 LT1715
R1 N001 +V 2K
R2 N001 0 2K
R3 N002 N001 6.98K
R4 N002 N003 10K
C1 N003 0 220p
R5 +V N004 2K
R6 N004 0 2K
R7 N004 IN 6.98K
.tran 100u
* LT1715 - 4ns, 150MHz Dual Comparator with Independent Input/Output Supplies\nRail-to-Rail 1MHz Pulse Width Modulator\nInput: 0V to 5V     Output: 880kHz PWM
* Note:\n  If the simulation model is not found please update with the "Sync Release" command from the "Tools" menu.\n  It remains the customer's responsibility to verify proper and reliable operation in the actual application.\n  Component substitution and printed circuit board layout may significantly affect circuit performance or reliability.\n  Contact your local sales representative for assistance. This circuit is distributed to customers only for use with LTC parts.\n  Copyright © 2015 Linear Technology Inc. All rights reserved.
.lib LTC1.lib
.backanno
.end
