* Z:\mnt\spice-netlists\LT1721_AN98F19.asc
XU1 N003 IN +V 0 N001 LT1720
XU2 N002 N005 +V 0 N004 LT1720
XU3 N005 N007 +V 0 N006 LT1720
A1 0 N004 0 N006 0 0 OUT 0 AND
V1 +V 0 5
V2 N003 0 2.5
R1 IN 0 50
R2 N002 N001 590
R3 N007 N001 620
R4 +V N005 1K
R5 N005 0 1K
C1 N002 0 8p
C2 N007 0 8p
C3 N005 0 .1µ
V3 IN 0 SINE(5 5 100K)
.tran .1m startup
* LT1721 - Quad, 4.5ns, Single Supply 3V/5V Comparators with Rail-to-Rail Outputs\n0ns to 10ns Pulse Width Generator
* Note:\n  If the simulation model is not found please update with the "Sync Release" command from the "Tools" menu.\n  It remains the customer's responsibility to verify proper and reliable operation in the actual application.\n  Component substitution and printed circuit board layout may significantly affect circuit performance or reliability.\n  Contact your local sales representative for assistance. This circuit is distributed to customers only for use with LTC parts.\n  Copyright © 2015 Linear Technology Inc. All rights reserved.
.lib LTC.lib
.backanno
.end
