* Z:\mnt\spice-netlists\LT1761_DC330.asc
V1 IN 0 PWL(0 0 1 20)
C1 OUT 0 10µ
R1 OUT N002 261K
R2 N002 0 249K
XU1 IN 0 N001 N002 OUT LT1761-BYP
C2 OUT N001 .01µ
C3 IN 0 1µ
Rload OUT 0 25
.tran 1 startup
* Note:\n  If the simulation model is not found please update with the "Sync Release" command from the "Tools" menu.\n  It remains the customer's responsibility to verify proper and reliable operation in the actual application.\n  Component substitution and printed circuit board layout may significantly affect circuit performance or reliability.\n  Contact your local sales representative for assistance. This circuit is distributed to customers only for use with LTC parts.\n  Copyright © 2011 Linear Technology Inc. All rights reserved.
* LT1761 - 100mA, Low Noise, LDO µPower Regulators in TSOT-23\nInput: 10V     Output: 2.5V @ 100mA
.lib LT1761.lib
.backanno
.end
