* Z:\mnt\spice-netlists\LT1764-25_TA01.asc
V1 IN 0 PWL(0 0 1 20)
C1 OUT 0 10µ
Rload OUT 0 .84
XU1 IN IN 0 OUT OUT LT1764-2.5
C2 IN 0 10µ
.tran 1
* LT1764 - 3A, Fast Transient Response, Low Noise, LDO\n3.3Vin to 2.5Vout  Low Noise Regulator\nInput: 3.5V to 16V     Output: 2.5V @ 3A
* Note:\n  If the simulation model is not found please update with the "Sync Release" command from the "Tools" menu.\n  It remains the customer's responsibility to verify proper and reliable operation in the actual application.\n  Component substitution and printed circuit board layout may significantly affect circuit performance or reliability.\n  Contact your local sales representative for assistance. This circuit is distributed to customers only for use with LTC parts.\n  Copyright © 2012 Linear Technology Inc. All rights reserved.
.lib LT1764.lib
.backanno
.end
