* Z:\mnt\spice-netlists\LT1931A.asc
D1 N002 0 MBR0520L
R2 N003 0 10.0K
R1 OUT N003 29.4K
V1 IN 0 5V
C3 OUT N003 180p
Iload 0 OUT 300mA load
XU1 N001 0 N003 IN IN LT1931A
C4 N002 N001 1
C6 0 OUT 4.7
C5 0 IN 4.7
L1 IN N001 4.7
L2 OUT N002 4.7
.model D D
.lib C:\users\brian\My Documents\LTspiceXVII\lib\cmp\standard.dio
.tran .4m startup
* Note:\n  If the simulation model is not found please update with the "Sync Release" command from the "Tools" menu.\n  It remains the customer's responsibility to verify proper and reliable operation in the actual application.\n  Component substitution and printed circuit board layout may significantly affect circuit performance or reliability\n  Contact your local sales representative for assistance. This circuit is distributed to customers only for use with LTC parts\n  Copyright  2006 Linear Technology Inc. All rights reserved.
* LT1931A - 1A, 2.2MHz, Inverting DC/DC Converter\nInput: 5V       Output: -5V at 300mA
.lib LT1931A.sub
.backanno
.end
