* Z:\mnt\spice-netlists\LT1934_TA03.asc
C1 N001 N002 .1µ
L1 N002 OUT 68µ
R1 OUT N003 1Meg
R2 0 N003 332K
D1 0 N002 MBRS130L
D2 OUT N001 BAT54
V1 IN 0 12
C2 OUT 0 68µ
C3 IN 0 2.2µ
XU1 N001 0 N003 IN IN N002 LT1934
C4 OUT N003 10p
Rload OUT 0 20
.model D D
.lib C:\users\brian\My Documents\LTspiceXVII\lib\cmp\standard.dio
.tran 2.5m startup
* Note:\n  If the simulation model is not found please update with the "Sync Release" command from the "Tools" menu.\n  It remains the customer's responsibility to verify proper and reliable operation in the actual application.\n  Component substitution and printed circuit board layout may significantly affect circuit performance or reliability\n  Contact your local sales representative for assistance. This circuit is distributed to customers only for use with LTC parts\n  Copyright © 2011 Linear Technology Inc. All rights reserved.
* LT1934 - µPower Step Down Regulator in ThinSOT\n5V Step-Down Converter\nInput: 6.5V to 34V     Output: 5V @ 250mA
.lib LT1934.sub
.backanno
.end
