* Z:\mnt\spice-netlists\LT1965_DC1172.asc
V1 IN 0 PWL(0 0 1 10)
C1 OUT 0 10µ
R1 OUT N001 7.32K
R2 N001 0 4.12K
C2 IN 0 10µ
XU1 IN IN 0 OUT N001 LT1965
Rload OUT 0 3
.tran 1 startup
* Note:\n  If the simulation model is not found please update with the "Sync Release" command from the "Tools" menu.\n  It remains the customer's responsibility to verify proper and reliable operation in the actual application.\n  Component substitution and printed circuit board layout may significantly affect circuit performance or reliability.\n  Contact your local sales representative for assistance. This circuit is distributed to customers only for use with LTC parts.\n  Copyright © 2011 Linear Technology Inc. All rights reserved.
* LT1965 - 1.1A, Low Noise, Low Dropout Linear Regulator\nInput: 10V     Output: 3.3V @ 1.1A
.lib LT1965.lib
.backanno
.end
