* Z:\mnt\spice-netlists\LT1930A.asc
V1 IN 0 3.3
R1 OUT N002 30.1K
R2 N002 0 10K
L1 IN N001 2.2µ Rser=0.182 Rpar=1K
Iload OUT 0 450m load
D1 N001 OUT MBR0520L
C1 IN 0 2.2µ
C2 OUT 0 10µ
XU1 N001 0 N002 IN IN LT1930A
.model D D
.lib C:\users\brian\My Documents\LTspiceXVII\lib\cmp\standard.dio
* LT1930A - 1A, 2.2MHz, Step-up DC/DC Converter in ThinSOT\nInput: 3.3V    Output: 5V @ 450mA
.tran .2m startup
* Note:\n  If the simulation model is not found please update with the "Sync Release" command from the "Tools" menu.\n  It remains the customer's responsibility to verify proper and reliable operation in the actual application.\n  Component substitution and printed circuit board layout may significantly affect circuit performance or reliability.\n  Contact your local sales representative for assistance. This circuit is distributed to customers only for use with LTC parts.\n  Copyright © 2006 Linear Technology Inc. All rights reserved.
.lib LT1930A.sub
.backanno
.end
