* Z:\mnt\spice-netlists\LT3081_TA01A.asc
C1 OUT 0 22µ
C2 IN 0 10µ
Rload OUT 0 1
V1 IN 0 5
R1 N002 0 499
XU1 N003 N004 N002 OUT N001 IN LT3081
R2 N001 0 1K
R3 N004 0 30.1K
R4 OUT N003 6.04K
C3 N004 0 100p
.tran 100u startup
* LT3081 - 1.5A Single Resistor Rugged Linear Regulator with Monitors\nWide Safe Operating Area Supply\nInput: 2.7V to 40V       Output: 1.5V @ 1.5A (Current Limited)
* Note:\n  If the simulation model is not found please update with the "Sync Release" command from the "Tools" menu.\n  It remains the customer's responsibility to verify proper and reliable operation in the actual application.\n  Component substitution and printed circuit board layout may significantly affect circuit performance or reliability.\n  Contact your local sales representative for assistance. This circuit is distributed to customers only for use with LTC parts.\n  Copyright ©2013 Linear Technology Inc. All rights reserved.
.lib LT3081.sub
.backanno
.end
