* Z:\mnt\spice-netlists\LT3065_DC2072A.asc
V1 IN 0 5
C1 IN 0 10
R1 N001 0 60.4K
R2 OUT N001 274K
C2 OUT 0 4.7
Rload OUT 0 7.33
C3 N003 0 .022
C4 OUT N001 1n
XU1 IN MP_01 IN N002 N003 N004 0 N001 OUT LT3065
R3 N003 0 604
C5 N004 0 0.01
R4 N002 OUT 499K
C6 OUT 0 4.7
* Note:\n  If the simulation model is not found please update with the "Sync Release" command from the "Tools" menu.\n  It remains the customer's responsibility to verify proper and reliable operation in the actual application.\n  Component substitution and printed circuit board layout may significantly affect circuit performance or reliability.\n  Contact your local sales representative for assistance. This circuit is distributed to customers only for use with LTC parts.\n  Copyright  2014 Linear Technology Inc. All rights reserved.
* LT3065 - 45V Vin, 500mA Low Noise, Linear Regulator with Programmable Current Limit and Power Good\n3.3V Supply with 490mA Precision Current Limit\nInput: 3.6V to 45V       Output: 3.3V @ 450mA
.tran 50m startup
.lib LT3065.sub
.backanno
.end
