* Z:\mnt\spice-netlists\LT3013B.asc
V1 IN 0 24
R1 OUT N001 750K
R2 0 N001 249K
C2 OUT 0 3.3µ Rser=5m
C4 IN 0 1µ Rser=5m
Rload OUT 0 20
R4 IN N002 1.6Meg
C1 N003 0 1000p
XU2 MP_01 OUT MP_02 N001 0 N002 N003 MP_03 MP_04 IN LT3013B
.tran 10m startup
* Note:\n  If the simulation model is not found please update with the "Sync Release" command from the "Tools" menu.\n  It remains the customer's responsibility to verify proper and reliable operation in the actual application.\n  Component substitution and printed circuit board layout may significantly affect circuit performance or reliability\n  Contact your local sales representative for assistance. This circuit is distributed to customers only for use with LTC parts\n  Copyright © 2007, 2014 Linear Technology Inc. All rights reserved.
* LT3013B - 250mA, 4V to 80V Low Dropout µPower Linear Regulator\n5V Low Dropout µPower Supply\nInput: 5.4V to 80V       Output: 5V @ 250mA
.lib LT3013.lib
.backanno
.end
