* Z:\mnt\spice-netlists\LT3050-5_TA01.asc
C1 N005 0 10n
R1 N003 0 3K
C2 N003 0 .1
V1 IN 0 12
R2 IN N002 120K
R3 N004 0 1.15K
C3 N004 0 10n
R4 N006 0 11.3K
C4 N006 0 .1
C5 OUT 0 2.2
Rload OUT 0 50
XU1 N005 N006 N002 IN IN MP_01 OUT MP_02 N001 0 N004 N003 LT3050-5
C6 OUT N001 10n
C7 IN 0 1
.tran .1 startup
* LT3050-5 - 100mA, Linear Regulator with Precision Current Limit and Diagnostic Outputs\nAutomotive Active Antenna Power Supply with Precision Current Limit and Diagnostics\nInput: 5.6V to 15V     Output: 5V @ 100mA, 10mA Min
* Note:\n  If the simulation model is not found please update with the "Sync Release" command from the "Tools" menu.\n  It remains the customer's responsibility to verify proper and reliable operation in the actual application.\n  Component substitution and printed circuit board layout may significantly affect circuit performance or reliability.\n  Contact your local sales representative for assistance. This circuit is distributed to customers only for use with LTC parts.\n  Copyright  2012 Linear Technology Inc. All rights reserved.
.lib LT3050-5.sub
.backanno
.end
