* Z:\mnt\spice-netlists\LT3030_TA01A_DC1855A.asc
V1 IN 0 2.5
C1 OUT1 0 10µ
Rload1 OUT1 0 2.4
C2 OUT1 N001 10n
R1 OUT1 N002 113K
R2 N002 0 237K
C3 OUT2 0 3.3µ
Rload2 OUT2 0 6
C4 OUT2 N004 10n
R3 OUT2 N006 54.9K
R4 N006 0 237K
C5 IN 0 2.2µ
XU1 OUT1 N002 0 N001 IN IN IN IN OUT2 N006 N004 N003 N005 LT3030
R5 IN N003 1Meg
R6 IN N005 1Meg
.tran 50m startup
* LT3030 - Dual 750mA/250mA Low Dropout, Low Noise, µPower Linear Regulator\nDual, µPower, Low Noise Linear Regulator\nInput: 2.2V to 20V    Output: 1.8V @ 0.75A & 1.5V @ 0.25A
* Note:\n  If the simulation model is not found please update with the "Sync Release" command from the "Tools" menu.\n  It remains the customer's responsibility to verify proper and reliable operation in the actual application.\n  Component substitution and printed circuit board layout may significantly affect circuit performance or reliability.\n  Contact your local sales representative for assistance. This circuit is distributed to customers only for use with LTC parts.\n  Copyright © 2013 Linear Technology Inc. All rights reserved.
.lib LT1763.lib
.backanno
.end
