* Z:\mnt\spice-netlists\LT3050_DC1515A.asc
XU1 N005 N006 N002 IN IN MP_01 OUT MP_02 N001 0 N004 N003 LT3050
C1 N005 0 10n
R1 N003 0 3.01K
C2 N003 0 .1
V1 IN 0 12
R2 IN N002 453K
R3 N004 0 1.15K
C3 N004 0 0.01
R4 N006 0 11.3K
C4 N006 0 0.1
R5 OUT N001 442K
R6 N001 0 60.4K
C5 OUT 0 2.2
Rload OUT 0 50
C6 IN 0 1
.tran .1 startup
* LT3050 - 100mA, Linear Regulator with Precision Current Limit and Diagnostic Outputs\nLow Noise Linear Regulator with Diagnostic Functions\nInput: 5.4V to 45V       Output: 5V @ 100mA
* Note:\n  If the simulation model is not found please update with the "Sync Release" command from the "Tools" menu.\n  It remains the customer's responsibility to verify proper and reliable operation in the actual application.\n  Component substitution and printed circuit board layout may significantly affect circuit performance or reliability.\n  Contact your local sales representative for assistance. This circuit is distributed to customers only for use with LTC parts.\n  Copyright  2012 Linear Technology Inc. All rights reserved.
.lib LT3050.sub
.backanno
.end
