* Z:\mnt\spice-netlists\LT3092.asc
R1 N003 N004 2
XU1 MP_01 N002 N003 MP_02 N001 LT3092
R2 N002 N004 40K
V1 N001 0 36
Rload N004 0 50
.tran 100u startup
* LT3092 - 200mA Two-Terminal Programmable Current Source\nInput: 36V       Output: 200mA
* Note:\n  If the simulation model is not found please update with the "Sync Release" command from the "Tools" menu.\n  It remains the customer's responsibility to verify proper and reliable operation in the actual application.\n  Component substitution and printed circuit board layout may significantly affect circuit performance or reliability.\n  Contact your local sales representative for assistance. This circuit is distributed to customers only for use with LTC parts.\n  Copyright © 2009 Linear Technology Inc. All rights reserved.
.lib LT3092.sub
.backanno
.end
