* Z:\mnt\spice-netlists\LT3023_DC704A.asc
R1 OUT1 N002 422K
R2 N002 0 249K
V1 IN 0 3.7
Rload1 OUT1 0 33
C1 OUT1 0 10
C2 IN 0 1
XU1 N003 N004 0 N002 N001 OUT1 IN IN IN OUT2 LT3023
R3 OUT2 N004 261K
R4 N004 0 249K
Rload2 OUT2 0 25
C3 OUT2 0 10
C4 OUT1 N001 .01
C5 OUT2 N003 .01
.tran 40m startup
* LT3023 - Dual 100mA, Low Dropout, Low Noise, 킦ower Regulator\nDual Low Noise Regulators\nInput: 3.7V to 20V     Outputs: 3.3V @ 100mA & 2.5V @ 100mA
* Note:\n  If the simulation model is not found please update with the "Sync Release" command from the "Tools" menu.\n  It remains the customer's responsibility to verify proper and reliable operation in the actual application.\n  Component substitution and printed circuit board layout may significantly affect circuit performance or reliability.\n  Contact your local sales representative for assistance. This circuit is distributed to customers only for use with LTC parts.\n  Copyright  2016 Linear Technology Inc. All rights reserved.
.lib LT3023.lib
.backanno
.end
