* Z:\mnt\spice-netlists\LT3080-1.asc
R1 N001 0 250K
C1 OUT 0 10µ
C2 IN 0 1µ
Rload OUT 0 2.5
V1 IN 0 7
XU1 MP_01 N001 OUT IN IN LT3080-1
XU2 MP_02 N001 OUT IN IN LT3080-1
.tran 50u startup
* LT3080-1 - Parallelable 1.1A Single Resistor Low Dropout Regulator\nInput: 7V       Output: 5.0V @ 2A
* Note:\n  If the simulation model is not found please update with the "Sync Release" command from the "Tools" menu.\n  It remains the customer's responsibility to verify proper and reliable operation in the actual application.\n  Component substitution and printed circuit board layout may significantly affect circuit performance or reliability.\n  Contact your local sales representative for assistance. This circuit is distributed to customers only for use with LTC parts.\n  Copyright © 2009 Linear Technology Inc. All rights reserved.
.lib LT3080-1.sub
.backanno
.end
