* Z:\mnt\spice-netlists\LT3028_DC832A.asc
R1 OUT1 N002 422K
R2 N002 0 249K
V1 IN1 0 3.7
Rload1 OUT1 0 6.6
C1 OUT1 0 10
C2 IN1 0 1
R3 OUT2 N004 261K
R4 N004 0 249K
Rload2 OUT2 0 25
C3 OUT2 0 10
C4 OUT1 N001 .01
C5 OUT2 N003 .01
XU1 N001 MP_01 OUT1 MP_02 0 OUT2 MP_03 N003 N004 IN2 IN2 MP_04 IN1 MP_05 IN1 N002 LT3028
V2 IN2 0 2.9
C6 IN2 0 1
.tran 40m startup
* LT3028 - Dual 100mA/500mA, Low Dropout, Low Noise, 킦ower Regulator with Independent Inputs\nDual Low Noise Regulators\nInput1: 3.7V to 20V     Output1: 3.3V @ 500mA\nInput2: 2.9V to 20V     Output2: 2.5V @ 100mA
* Note:\n  If the simulation model is not found please update with the "Sync Release" command from the "Tools" menu.\n  It remains the customer's responsibility to verify proper and reliable operation in the actual application.\n  Component substitution and printed circuit board layout may significantly affect circuit performance or reliability.\n  Contact your local sales representative for assistance. This circuit is distributed to customers only for use with LTC parts.\n  Copyright  2016 Linear Technology Inc. All rights reserved.
.lib LT3028.lib
.backanno
.end
