* Z:\mnt\spice-netlists\LT3080_F04.asc
XU1 MP_01 N002 N001 IN IN LT3080
C1 IN 0 2.2µ
V1 IN 0 12
XU2 MP_02 N002 N003 IN IN LT3080
XU3 MP_03 N002 N004 IN IN LT3080
R1 N002 0 100K
C2 OUT 0 22µ
R2 OUT N001 20m
R3 OUT N003 20m
R4 OUT N004 20m
C3 N002 0 10n
Rload OUT 0 1
* LT3080 - 1.1A Single Resistor Low Dropout Regulator in Parallel Operation\nInput: 12V       Output: 3V @ 3A
.tran 15m startup
* Note:\n  If the simulation model is not found please update with the "Sync Release" command from the "Tools" menu.\n  It remains the customer's responsibility to verify proper and reliable operation in the actual application.\n  Component substitution and printed circuit board layout may significantly affect circuit performance or reliability.\n  Contact your local sales representative for assistance. This circuit is distributed to customers only for use with LTC parts.\n  Copyright © 2011 Linear Technology Inc. All rights reserved.
.lib LT3080.sub
.backanno
.end
