* Z:\mnt\spice-netlists\LT3066_DC2437A_TA01.asc
C1 N005 0 1n
V1 IN 0 5
R1 IN N003 499K
R2 OUT N002 280K
R3 N002 0 61.9K
C2 N004 0 22n
C3 OUT 0 10µ
C4 OUT N002 10n
XU1 N001 IN MP_01 IN N003 N004 N005 MP_02 N002 MP_03 OUT MP_04 0 LT3066
C5 N001 0 .47µ
R4 N004 0 604
C6 IN 0 10µ
Rload OUT 0 7.33
.tran 50m startup
* LT3066 - 45V Vin, 500mA Low Noise, Linear Regulator with Programmable Current Limit and Active Output Discharge\n3.3V Supply with 497mA Precision Current Limit\nInput: 3.6V to 45V     Output: 3.3V @ 450mA
* Note:\n  If the simulation model is not found please update with the "Sync Release" command from the "Tools" menu.\n  It remains the customer's responsibility to verify proper and reliable operation in the actual application.\n  Component substitution and printed circuit board layout may significantly affect circuit performance or reliability.\n  Contact your local sales representative for assistance. This circuit is distributed to customers only for use with LTC parts.\n  Copyright © 2016 Linear Technology Inc. All rights reserved.
.lib LT3066.sub
.backanno
.end
