* Z:\mnt\spice-netlists\LT3483.asc
L1 IN N001 10µ
V1 IN 0 3.3
C1 N002 N001 .22µ
R1 N004 OUT 806K
R2 N003 OUT 10
C2 OUT 0 2.2µ
C3 OUT N004 5p
XU1 N001 0 N004 IN N002 IN LT3483
D1 N003 N002 PMEG2005EB
C4 IN 0 4.7µ
Rload OUT 0 320
.model D D
.lib C:\users\brian\My Documents\LTspiceXVII\lib\cmp\standard.dio
.tran 1m startup
* Note:\n  If the simulation model is not found please update with the "Sync Release" command from the "Tools" menu.\n  It remains the customer's responsibility to verify proper and reliable operation in the actual application.\n  Component substitution and printed circuit board layout may significantly affect circuit performance or reliability\n  Contact your local sales representative for assistance. This circuit is distributed to customers only for use with LTC parts\n  Copyright © 2006 Linear Technology Inc. All rights reserved.
* LT3483 - 170mA, Current Limited Constant Off-time, Inverting µPower \nDC/DC Converter with Schottky in ThinSOT Package\nInput: 3.3V    Output: -8V @ 25mA
.lib LT3483.sub
.backanno
.end
