* Z:\mnt\spice-netlists\LT3484_0.asc
V1 IN 0 3V
L1 IN N003 10µ
L2 0 N001 1.04m
D1 N001 OUT D
C1 OUT 0 .1µ
R1 IN N002 100K
XU1 N002 IN IN N003 MP_01 IN 0 LT3484-0
.model D D
.lib C:\users\brian\My Documents\LTspiceXVII\lib\cmp\standard.dio
K1 L1 L2 1
.tran 10m startup
* Note:\n  If the simulation model is not found please update with the "Sync Release" command from the "Tools" menu.\n  It remains the customer's responsibility to verify proper and reliable operation in the actual application.\n  Component substitution and printed circuit board layout may significantly affect circuit performance or reliability.\n  Contact your local sales representative for assistance. This circuit is distributed to customers only for use with LTC parts.\n  Copyright © 2006 Linear Technology Inc. All rights reserved.
* LT3484-0 - Photoflash Capacitor Charger\nInput: 3V   Output: 320V
.lib LT3484-0.sub
.backanno
.end
