* Z:\mnt\spice-netlists\LT3485_0.asc
V1 IN 0 3
L1 IN N004 10µ
L2 0 N001 1.04m
D1 N001 OUT D
C1 OUT 0 .1µ
R1 IN N003 100K
XU1 IN IN IN N004 MP_01 N007 N006 N002 N003 N005 0 LT3485-0
.model D D
.lib C:\users\brian\My Documents\LTspiceXVII\lib\cmp\standard.dio
K1 L1 L2 1
.tran 10m startup
* Note:\n  If the simulation model is not found please update with the "Sync Release" command from the "Tools" menu.\n  It remains the customer's responsibility to verify proper and reliable operation in the actual application.\n  Component substitution and printed circuit board layout may significantly affect circuit performance or reliability.\n  Contact your local sales representative for assistance. This circuit is distributed to customers only for use with LTC parts.\n  Copyright © 2006 Linear Technology Inc. All rights reserved.
* LT3485-0 - Photoflash Capacitor Charger with Vout Monitor and IGBT Gate Drive\nInput: 3V   Output: 320V
.lib LT3485-0.sub
.backanno
.end
