* Z:\mnt\spice-netlists\LT3466.asc
R1 N006 0 10
R2 N011 0 63.4K
L1 IN N001 47µ
V1 IN 0 3
V2 N010 0 2
D1 OUT N002 NSPW500BS
D2 N002 N003 NSPW500BS
D3 N003 N004 NSPW500BS
D4 N004 N005 NSPW500BS
D5 N005 N009 NSPW500BS
D6 N009 N008 NSPW500BS
D7 N008 N007 NSPW500BS
D8 N007 N006 NSPW500BS
C1 OUT 0 2.2µ
XU2 OUT N001 IN MP_01 MP_02 MP_03 MP_04 N011 N010 N006 0 LT3466
.model D D
.lib C:\users\brian\My Documents\LTspiceXVII\lib\cmp\standard.dio
.tran 2m startup
* LT3466 - 320mA, 200KHz to 2MHz, Dual Function White LED Step-up DC/DC Converter\nInput: 3V       Output: Powers 8 LEDs at 20mA
* Note:\n  If the simulation model is not found please update with the "Sync Release" command from the "Tools" menu.\n  It remains the customer's responsibility to verify proper and reliable operation in the actual application.\n  Component substitution and printed circuit board layout may significantly affect circuit performance or reliability\n  Contact your local sales representative for assistance. This circuit is distributed to customers only for use with LTC parts\n  Copyright © 2006 Linear Technology Inc. All rights reserved.
.lib LT3466.sub
.backanno
.end
