* Z:\mnt\spice-netlists\LT3501.asc
V1 IN 0 12
C1 IN 0 2.2
C2 N018 0 .001
C3 N004 N006 .1
L1 N006 N008 4.7
R1 OUT1 N010 24.9K
R2 N010 0 8.06K
D1 0 N006 MBRS340
D2 OUT1 N004 PMEG4005AEA
C4 OUT1 0 100
R3 OUT1 N016 100K
C5 N017 0 .001
C6 N003 N005 .1
L2 N005 N007 3.3
R4 OUT2 N009 10K
R5 N009 0 8.06K
D3 0 N005 MBRS340
D4 OUT1 N003 PMEG4005AEA
C7 OUT2 0 100
R6 OUT2 N015 100K
XU1 IN N006 N008 OUT1 N016 N015 OUT2 N007 N005 IN N003 N017 N012 N009 N001 N002 N010 N013 N018 N004 0 LT3501
R7 N002 0 61.9K
R8 N012 N011 31.6K
R9 N013 N014 84.5K
C8 N014 0 220p
C9 N011 0 330p
C10 N013 0 22p
C11 N012 0 22p
C12 OUT1 N010 100p
C13 OUT2 N009 470p
Rload1 OUT1 0 1.2
Rload2 OUT2 0 .6
.model D D
.lib C:\users\brian\My Documents\LTspiceXVII\lib\cmp\standard.dio
.tran .5m startup
* LT3501 - Dual 3A Step-down Switching Regulator in TSSOP-20\nInput: 12V       Outputs: 3.3V@3A and 1.8V@3A
* Note:\n  If the simulation model is not found please update with the "Sync Release" command from the "Tools" menu.\n  It remains the customer's responsibility to verify proper and reliable operation in the actual application.\n  Component substitution and printed circuit board layout may significantly affect circuit performance or reliability.\n  Contact your local sales representative for assistance. This circuit is distributed to customers only for use with LTC parts.\n  Copyright  2006 Linear Technology Inc. All rights reserved.
.lib LT3501.sub
.backanno
.end
