* Z:\mnt\spice-netlists\LT3692.asc
V1 IN 0 12
C1 IN 0 10
C2 N004 N006 .47
L1 N006 N008 4.7
R1 OUT2 N010 24.9K
R2 N010 0 8.06K
D1 0 N006 MBRS340
D2 OUT2 N004 PMEG4005AEA
C3 OUT2 0 100
R3 OUT2 N012 100K
R4 N015 N014 30.0K
C4 N014 0 680p
C5 OUT2 N010 22p
XU1 N005 N013 N011 N011 N010 N010 N012 N004 OUT2 MP_01 N008 MP_02 N006 IN N002 N018 N020 N015 N023 MP_03 N001 N022 N016 N021 N019 N003 IN N007 MP_04 N009 MP_05 OUT1 0 LT3692
R5 N022 0 10.2K
R6 N023 0 20.0K
R7 N020 0 100K
R8 N021 0 100K
C6 N018 0 1n
C7 N015 0 33p
C8 N005 N007 .47
L2 N007 N009 6.8
R9 OUT1 N011 42.2K
R10 N011 0 8.06K
D3 0 N007 MBRS340
D4 OUT1 N005 PMEG4005AEA
C9 OUT1 0 100
R11 OUT1 N013 100K
R12 N016 N017 30K
C10 N017 0 680p
C11 OUT1 N011 22p
C12 N019 0 1n
C13 N016 0 33p
R13 IN N002 1K
R14 IN N003 1K
Rload2 OUT2 0 1.1
Rload1 OUT1 0 1.67
.model D D
.lib C:\users\brian\My Documents\LTspiceXVII\lib\cmp\standard.dio
* LT3692 - Monolithic Dual Tracking 3.5A Step-Down Switching Regulator\nInput: 12V       Outputs: 5V @ 3A and 3.3V @ 3A
* Note:\n  If the simulation model is not found please update with the "Sync Release" command from the "Tools" menu.\n  It remains the customer's responsibility to verify proper and reliable operation in the actual application.\n  Component substitution and printed circuit board layout may significantly affect circuit performance or reliability.\n  Contact your local sales representative for assistance. This circuit is distributed to customers only for use with LTC parts.\n  Copyright  2011 Linear Technology Inc. All rights reserved.
.tran 500u startup
.lib LT3692.sub
.backanno
.end
