* Z:\mnt\spice-netlists\LT3690_DC1520A.asc
L2 N005 OUT 3.3
R4 OUT N006 316K
R5 N006 0 102K
R6 N004 0 45.3K
C4 OUT 0 47
Rload OUT 0 3.3
C5 N003 N005 0.68
V1 IN 0 36
C1 IN 0 10
XU1 OUT N003 N005 IN IN IN N001 N006 N008 N004 0 N009 N002 LT3690
C2 N002 0 0.47
R1 N008 N007 21.5K
C6 N007 0 680p
R2 OUT N001 100K
C3 N009 0 1000p
* Note:\n  If the simulation model is not found please update with the "Sync Release" command from the "Tools" menu.\n  It remains the customer's responsibility to verify proper and reliable operation in the actual application.\n  Component substitution and printed circuit board layout may significantly affect circuit performance or reliability.\n  Contact your local sales representative for assistance. This circuit is distributed to customers only for use with LTC parts.\n  Copyright  2011 Linear Technology Inc. All rights reserved.
* LT3690 - 36V, 4A. 1.5MHz Synchronous Step-Down Switching Regulator with 70킕 Quiescent Current\nInput: 12V       Output: 3.3V @ 4A
.tran 800u startup
.lib LT3690.sub
.backanno
.end
