* Z:\mnt\spice-netlists\LT3755-1.asc
C1 N004 0 4.7µ
M§Q1 N001 N006 N008 N008 Si7850DP
R1 N008 0 15m
L1 IN N001 22µ Rser=.1
R2 N002 N009 1000K
R3 N009 0 23.7K
D1 N001 N002 MBRS360
R4 N002 N011 .1
C2 N002 0 6.6µ Rser=.005
V1 IN 0 14
R5 IN N003 499K
R6 N003 0 90.9K
C3 N012 0 .0022µ
M§Q2 N015 N018 0 0 Si7850DP
D2 N011 N015 LXK2-PW14 N=10
C4 N014 0 .01µ
R7 N016 0 33.2K
V2 N017 0 PULSE(0 5 0 1u 1u 125u 250u)
R9 IN N010 1000k
R10 N010 0 133k
R11 N013 N012 22K
XU1 N007 N017 N005 N014 N016 N003 N004 IN N008 N006 N018 N009 N011 N002 N013 N010 0 LT3755-1
V3 N005 0 PULSE(0 5 0 50n 50n 1.25u 2.5u)
.model D D
.lib C:\users\brian\My Documents\LTspiceXVII\lib\cmp\standard.dio
.model NMOS NMOS
.model PMOS PMOS
.lib C:\users\brian\My Documents\LTspiceXVII\lib\cmp\standard.mos
.tran 4m startup
* LT3755-1 - 40VIN 75VLED High Current LED Driver Controller with Sync\nInput: 8V to 40V       Output: 50VLED @ 1A  fsync = 400kHz
* Note:\n  If the simulation model is not found please update with the "Sync Release" command from the "Tools" menu.\n  It remains the customer's responsibility to verify proper and reliable operation in the actual application.\n  Component substitution and printed circuit board layout may significantly affect circuit performance or reliability.\n  Contact your local sales representative for assistance. This circuit is distributed to customers only for use with LTC parts.\n  Copyright © 2008 Linear Technology Inc. All rights reserved.
.lib LT3755-1.sub
.backanno
.end
