* Z:\mnt\spice-netlists\LT3741_Buck.asc
XU1 0 N002 N004 N011 MP_01 N009 MP_02 N013 MP_03 N016 N012 N014 MP_04 N015 N006 MP_05 MP_06 MP_07 MP_08 MP_09 MP_10 MP_11 N005 N007 N003 N010 N001 IN LT3741
L1 N007 N008 8.2
R1 N008 OUT 10m
C1 OUT 0 100
R2 N006 0 82.5K
C2 N004 0 .001
R3 N015 P001 30.1K
C3 P001 0 3900p
C4 N013 0 .001
C5 IN 0 22
C6 IN 0 1
R4 OUT N016 187K
R5 N016 0 12.1K
R6 N008 N012 10
R7 OUT N014 10
C7 N012 N014 .0022
M쬞1 IN N005 N007 N007 Si7884DP
M쬞2 N007 N010 0 0 Si7884DP
C8 N001 0 4.7
D1 N001 N003 BAT54
C9 N003 N007 100n
R8 N004 N011 45.3K
R9 N011 0 470K
V3 IN 0 30
Rload OUT 0 15
R10 N002 0 3.6K
R11 IN N002 18K
R12 N009 0 4.3K
R13 IN N009 82K
.model D D
.lib C:\users\brian\My Documents\LTspiceXVII\lib\cmp\standard.dio
.model NMOS NMOS
.model PMOS PMOS
.lib C:\users\brian\My Documents\LTspiceXVII\lib\cmp\standard.mos
.tran 1.5m startup
* LT3741 - High Power, Constant Current, Constant Voltage, Step-Down Controller\nInput 30V,  Output 20V @ 1.3A
* Notes:\n  If the simulation model is not found please update with the "Sync Release" command from the "Tools" menu.\n  It remains the customer's responsibility to verify proper and reliable operation in the actual application.\n  Component substitution and printed circuit board layout may significantly affect circuit performance or reliability.\n  Contact your local sales representative for assistance. This circuit is distributed to customers only for use with LTC parts.\n  Copyright  2010 Linear Technology Inc. All rights reserved.
.lib LT3741.sub
.backanno
.end
