* Z:\mnt\spice-netlists\LT3741_Supercap.asc
XU1 0 N002 N004 N010 MP_01 N004 MP_02 N012 MP_03 N016 N011 N013 MP_04 N015 N006 MP_05 MP_06 MP_07 MP_08 MP_09 MP_10 MP_11 N005 N007 N003 N009 N001 IN LT3741
L1 N007 N008 1
R1 N008 OUT 2.5m
C1 OUT 0 330 x3
R2 N006 0 82.5K
C2 N004 0 .001
R3 N015 N014 47.5K
C3 N014 0 .0047
C4 N012 0 .001
C5 IN 0 100
C6 IN 0 1
R4 OUT N016 38.3K
R5 N016 0 12.1K
R6 N008 N011 10
R7 OUT N013 10
C7 N011 N013 .0022
C8 N001 0 4.7
D1 N001 N003 BAT54
C9 N003 N007 100n
R8 N004 N010 45.3K
R9 N010 0 470K
M쬞1 N007 N009 0 0 RJK0346DPA
M쬞2 IN N005 N007 N007 RJK0365DPA
V1 IN 0 12
R10 IN N002 50K
R11 N002 0 50K
Rload OUT 0 15
.model D D
.lib C:\users\brian\My Documents\LTspiceXVII\lib\cmp\standard.dio
.model NMOS NMOS
.model PMOS PMOS
.lib C:\users\brian\My Documents\LTspiceXVII\lib\cmp\standard.mos
.tran 1.2m startup
.model RJK0365DPA VDMOS(Rg=.8 Vto=1.85 Rd=2.7m Rs=.7m Rb=1.3m Kp=40.8 Lambda=.07 Cgdmax=0.17n Cgdmin=.05n Cgs=0.67n Cjo=.98n Is=48p mfg=Renesas Vds=30 Ron=8.9m Qg=7.6n)
.model RJK0346DPA VDMOS(Rg=1.2 Vto=1.85 Rd=1.9m Rs=.7m Rb=1.3m Kp=40.8 Lambda=.07 Cgdmax=1.05n Cgdmin=.05n Cgs=4.2n Cjo=.98n Is=48p mfg=Renesas Vds=30 Ron=1.9m Qg=49n)
* LT3741 - High Power, Constant Current, Constant Voltage, Step-Down Controller\nSuper Capacitor Charger, Input: 12V, Output: 5V @350mA
* Notes:\n  If the simulation model is not found please update with the "Sync Release" command from the "Tools" menu.\n  It remains the customer's responsibility to verify proper and reliable operation in the actual application.\n  Component substitution and printed circuit board layout may significantly affect circuit performance or reliability.\n  Contact your local sales representative for assistance. This circuit is distributed to customers only for use with LTC parts.\n  Copyright  2010 Linear Technology Inc. All rights reserved.
.lib LT3741.sub
.backanno
.end
