* Z:\mnt\spice-netlists\LT4356-1_TA05.asc
S1 0 OUT N001 0 SHORT
V1 IN 0 PWL(0 0 1m 12 80m 12 80.2m 80 90m 45 100m 26.9 120m 12)
V2 N001 0 PWL(0 0 200m 0 201m 1 220m 1 221m 0)
R1 N002 N004 10
R2 OUT N005 118K
R3 N005 0 4.99K
C1 N006 0 .1µ
XU1 N006 N005 OUT N004 N003 N003 NC_01 NC_02 NC_03 0 NC_04 NC_05 LT4356-1
M§Q1 IN N002 OUT OUT IRFH5015
R4 IN N003 1K
D1 0 N003 DFLZ33
C2 N004 0 .047µ
Rload OUT 0 50
.model D D
.lib C:\users\brian\My Documents\LTspiceXVII\lib\cmp\standard.dio
.model NMOS NMOS
.model PMOS PMOS
.lib C:\users\brian\My Documents\LTspiceXVII\lib\cmp\standard.mos
.tran 300m
.model SHORT SW(Ron=10m Roff=1G Vt=0.5 Vh=-.1)
* Note:\n  If the simulation model is not found please update with the "Sync Release" command from the "Tools" menu.\n  It remains the customer's responsibility to verify proper and reliable operation in the actual application.\n  Component substitution and printed circuit board layout may significantly affect circuit performance or reliability.\n  Contact your local sales representative for assistance. This circuit is distributed to customers only for use with LTC parts.\n  Copyright © 2010 Linear Technology Inc. All rights reserved.
* LT4356 - Surge Stopper\n24V Overvoltage Regulator that Withstands 150V at Vin
.lib LT4356-1.sub
.backanno
.end
