* Z:\mnt\spice-netlists\LT6016_TA01A.asc
XU1 N002 N006 N007 0 N003 LT6016
V1 N007 0 5
V2 N001 0 75
R1 N002 N001 200
R2 N006 N005 200
R3 N001 N005 .1
I1 N005 0 PWL(0 0 2.5m 1 5m 0)
R4 N004 N003 100
M§Q1 N002 N004 OUT OUT Si9420DY
R5 OUT 0 2K
.model NMOS NMOS
.model PMOS PMOS
.lib C:\users\brian\My Documents\LTspiceXVII\lib\cmp\standard.mos
.tran 5m
* LT6016 - Dual 3.2MHz, 0.8V/µs Low Power, Over-The-Top Precision Op Amp \nPrecision High Voltage High Side Load Current Monitor\nVbat: 1.5V to 76V     Iload: 0A to 1A    Output: 0V to 1V (1V/A)
* Note:\n  If the simulation model is not found please update with the "Sync Release" command from the "Tools" menu.\n  It remains the customer's responsibility to verify proper and reliable operation in the actual application.\n  Component substitution and printed circuit board layout may significantly affect circuit performance or reliability.\n  Contact your local sales representative for assistance. This circuit is distributed to customers only for use with LTC parts.\n  Copyright © 2013 Linear Technology Inc. All rights reserved.
.lib LTC2.LIB
.backanno
.end
