* Z:\mnt\spice-netlists\LT6105_F05.asc
XU1 N003 N004 IN OUT MP_01 N002 LT6105
R1 N001 IN 40m
R2 N001 N002 100
R3 IN N003 100
V1 N004 0 5
V2 0 IN 15
R4 OUT 0 10K
R5 N001 0 10K
Iload 0 N001 PULSE(0 1 0 .05 .05 .1 .25)
* LT6105 - Precision, Rail-to-Rail Input Current Sense Amplifier\nUnidirectional Current Sense Amplifier for Negative Supplies\nInput: .3V to -44V     Rsense: .O4ohm Shunt with 1A     Output: 0V to 4V (Gain of 100)
.tran 1.5 startup
* Note:\n  If the simulation model is not found please update with the "Sync Release" command from the "Tools" menu.\n  It remains the customer's responsibility to verify proper and reliable operation in the actual application.\n  Component substitution and printed circuit board layout may significantly affect circuit performance or reliability.\n  Contact your local sales representative for assistance. This circuit is distributed to customers only for use with LTC parts.\n  Copyright © 2012 Linear Technology Inc. All rights reserved.
.lib LTC6.lib
.backanno
.end
