* Z:\mnt\spice-netlists\LT6261_BesselSecondOrder_1.asc
V1 IN VREF PULSE(1 -1 10u 1n 1n 500u) AC 1
V2 V+ 0 5
R1 IN N001 15.4K
R2 N001 N002 15.4K
C1 N001 0 150p
C2 N002 OUT 47p
R3 N001 OUT 15.4K
V3 VREF 0 2.5
XU1 VREF N002 OUT V+ 0 V+ LTC6261
.ac oct 250 100 1meg
* .tran 5m
* .noise V(o1) V1 oct 100 1 10k
* LTC6261 - 30MHz, 240?A Power Efficient Rail-to-Rail I/O \nSecond Order Bessel Filter @ 100kHz\nf3dB=100kHz
* Note:\n  If the simulation model is not found please update with the "Sync Release" command from the "Tools" menu.\n  It remains the customer's responsibility to verify proper and reliable operation in the actual application.\n  Component substitution and printed circuit board layout may significantly affect circuit performance or reliability\n  Contact your local sales representative for assistance. This circuit is distributed to customers only for use with LTC parts\n  Copyright © 2017 Linear Technology Inc. All rights reserved.
.lib LTC6.lib
.backanno
.end
