* Z:\mnt\spice-netlists\LT6703-3_PSMonitor.asc
V1 +V 0 5
R1 +V OUT 10K
V3 IN 0 PULSE(20 0 0.1 0.4 0.4 0.4 1.6)
R3 IN N001 88.5K
R4 N001 0 2K
XU1 OUT 0 N001 +V LT6703-3
R2 OUT N001 220K
C1 IN 0 .1µ
* LT6703-3 µPower, Low Voltage Comparator with 400mV Reference\nµPower Supply Voltage Monitor with 2V Hysteresis\nTrippoints: 18.25V Low to High, 16V High to Low
.tran 1.5 startup
* Note:\n  LT6703-3 (non-inverting input version) has a internal 6.5mV of hysteresis. \n  Using an external positive feedback the hysteresis can be increased to 2V.\n  If the simulation model is not found please update with the "Sync Release" command from the "Tools" menu.\n  It remains the customer's responsibility to verify proper and reliable operation in the actual application.\n  Component substitution and printed circuit board layout may significantly affect circuit performance or reliability.\n  Contact your local sales representative for assistance. This circuit is distributed to customers only for use with LTC parts.\n  Copyright © 2015 Linear Technology Inc. All rights reserved.
.lib LTC6.lib
.backanno
.end
