* Z:\mnt\spice-netlists\LT8310_LT1431_DC1963A_.asc
XU1 N003 MP_01 N006 MP_02 N008 N011 MP_03 N018 N020 N019 NC_04 MP_05 N012 N009 N004 N007 MP_06 IN MP_07 MP_08 0 LT8310
V1 IN 0 48
C1 N008 0 5.6n
C2 N004 0 4.7µ
R1 N004 N007 118K
R2 N011 0 40.2K
C3 N018 0 100n
M§Q1 N005 N009 N012 N012 BSC320N20NS3
R3 N012 0 0.025
L1 N005 IN 300µ Rser=36m
L2 0 N001 90µ Rser=15m
D1 0 N002 MBR20100CT
D2 N001 N002 MBR20100CT
L3 N002 OUT 22µ Rser=16m
C4 OUT 0 100µ Rser=10m
C5 N005 N012 390p
XU2 N015 NC_09 N010 NC_10 0 0 NC_11 N017 LT1431
R4 N019 0 10K
R5 N004 N019 100K
R6 OUT N017 94.5K
R7 N017 0 24.9K
C6 N016 N015 1.2n
R8 N017 N016 100K
R9 N010 N014 3.3K
C7 N010 N014 3.3n
R11 N013 N020 61.9K
R12 N020 0 20K
R13 IN N003 86.6K
R14 N003 N006 1.78K
R15 N006 0 1.43K
XU3 N014 N015 N013 0 NC_12 MOC205 Igain=2.44m
Rload OUT 0 2
C8 N020 0 100p
R16 OUT N010 200
D3 0 N010 EDZV11B
R17 N004 N013 3k
C9 0 N010 1µ
C10 IN 0 1µ
.model D D
.lib C:\users\brian\My Documents\LTspiceXVII\lib\cmp\standard.dio
.model NMOS NMOS
.model PMOS PMOS
.lib C:\users\brian\My Documents\LTspiceXVII\lib\cmp\standard.mos
K1 L1 L2 1
.tran 8m startup
* LT8310 - 100 Vin Forward Converter Controller\nLT1431 - Programmable Reference\n72 Watt Isolated Nonsynchronous Forward Converter with Opto Feedback\nInput: 36V to 72V       Output: 12V @ 6A
* Note:\n  If the simulation model is not found please update with the "Sync Release" command from the "Tools" menu.\n  It remains the customer's responsibility to verify proper and reliable operation in the actual application.\n  Component substitution and printed circuit board layout may significantly affect circuit performance or reliability.\n  Contact your local sales representative for assistance. This circuit is distributed to customers only for use with LTC parts.\n  Copyright © 2014 Linear Technology Inc. All rights reserved.
.lib LT1431.sub
.lib LT8310.sub
.lib MOC205.sub
.backanno
.end
