* Z:\mnt\spice-netlists\LT8610AB_DC2012A_TA02.asc
R1 N005 0 18.2K
C1 N003 0 .001µ
V1 IN 0 12
C2 N001 0 1µ
L1 N004 OUT 2.2µ Ipk=12.9 Rser=0.0132 Rpar=207.24 Cpar=0 mfg="Coilcraft" pn="XAL5030-222"
C3 N002 N004 0.1µ
C4 OUT 0 47µ V=6.3 Irms=0 Rser=0.002 Lser=0 Rpar=1000 Cpar=5p mfg="TDK" pn="C4532X5ROJ47@M" type="X5R"
R2 OUT N006 1Meg
R3 N006 0 243K
C5 OUT N006 10p
C6 IN 0 4.7µ V=50
Rload OUT 0 1.43
C7 OUT 0 47µ V=6.3 Irms=0 Rser=0.002 Lser=0 Rpar=1000 Cpar=5p mfg="TDK" pn="C4532X5ROJ47@M" type="X5R"
XU1 MP_01 N003 N005 IN IN MP_02 0 MP_03 N004 MP_04 MP_05 N002 N001 OUT NC_06 N006 0 LT8610AB
.tran 1m startup
* LT8610AB - 42V, 3.5A Synchronous Step-Down Regulator with 2.5µA Quiescent Current\n5V 2MHz µPower Step-Down Converter with Light Load Efficiency\nInput: 5.5V to 42V       Output: 5V @ 3.5A, Fsw = 2MHz
* Note:\n  A smaller SS capacitor is being used to reduce simulation time. See datasheet for typical values.\n  If the simulation model is not found please update with the "Sync Release" command from the "Tools" menu.\n  It remains the customer's responsibility to verify proper and reliable operation in the actual application.\n  Component substitution and printed circuit board layout may significantly affect circuit performance or reliability.\n  Contact your local sales representative for assistance. This circuit is distributed to customers only for use with LTC parts.\n  Copyright © 2014 Linear Technology Inc. All rights reserved.
.lib LT8610AB.sub
.backanno
.end
