* Z:\mnt\spice-netlists\LTC1983-3_TA05.asc
XU1 IN OUT1 N001 N002 0 IN LTC1983-3
C1 N001 N002 1
C2 OUT1 0 10
V1 IN 0 3
Rload1 OUT1 0 50
D1 IN N003 1N914
C3 N002 N003 1
D2 N003 OUT2 1N914
C4 OUT2 0 10
Rload2 OUT2 0 50
C5 IN 0 10
.model D D
.lib C:\users\brian\My Documents\LTspiceXVII\lib\cmp\standard.dio
.tran 2m startup
* LTC1983 - 100mA Regulated Charge-Pump Inverter\nCombined Regulated Inverter & Unregulated Doubler\nInput : 3V to 5.5V     Output: -3V @ 100mA & Doubler
* Note:\n  If the simulation model is not found please update with the "Sync Release" command from the "Tools" menu.\n  It remains the customer's responsibility to verify proper and reliable operation in the actual application.\n  Component substitution and printed circuit board layout may significantly affect circuit performance or reliability\n  Contact your local sales representative for assistance. This circuit is distributed to customers only for use with LTC parts\n  Copyright  2013 Linear Technology Inc. All rights reserved.
* Doubler = 2*Vin - 2*Vdiode
.lib LTC1983-3.sub
.backanno
.end
