* Z:\mnt\spice-netlists\LTC2955-1_V22N2_F1.asc
C1 N011 0 33n
V1 N010 0 PULSE(0 2 5 1u 1u 1 3 3)
R1 OUT N005 10K
R2 OUT N007 100K
C2 OUT 0 1µ
R3 N006 IN1 2.21Meg
R4 0 N006 200K
S1 0 N008 N010 0 SW
XU1 N005 N009 N002 N001 N008 0 0 N011 N007 N006 LTC2955-1
XU2 N001 OUT MP_01 0 N002 LT3009-3.3
D1 IN1 N001 1N5819
XU3 IN2 0 0 N004 N003 N001 LTC4412
V2 IN1 0 PULSE(0 12 2 100m 100m 2)
V3 IN2 0 3.6
M§Q1 IN2 N003 N001 N001 FDC638P
Rload OUT 0 165
.model D D
.lib C:\users\brian\My Documents\LTspiceXVII\lib\cmp\standard.dio
.model NMOS NMOS
.model PMOS PMOS
.lib C:\users\brian\My Documents\LTspiceXVII\lib\cmp\standard.mos
.tran 14 startup
.model SW SW(Ron=100 Roff=1G Vt=0.5 Vh=-.1)
* LTC2955 - Pushbutton On/Off Controller with Automatic Turn-On\nLT3009 - 3µA Iq, 20mA Low Dropout Linear Regulators & LTC4412 - Low Loss PowerPath Controller\nPushbutton On/Off Control with Automatic Turn-On When 12V Applied\nInput: 12V (3.6V Battery Backup)     Output: 3.3V @ 20mA
* Note:\n  If the simulation model is not found please update with the "Sync Release" command from the "Tools" menu.\n  It remains the customer's responsibility to verify proper and reliable operation in the actual application.\n  Component substitution and printed circuit board layout may significantly affect circuit performance or reliability.\n  Contact your local sales representative for assistance. This circuit is distributed to customers only for use with LTC parts.\n  Copyright © 2012 Linear Technology Inc. All rights reserved.
.lib LT3009.lib
.lib LTC2955-1.sub
.lib LTC4412.sub
.backanno
.end
