* Z:\mnt\spice-netlists\LTC2997_TA01A_DC1767A.asc
XU1 N001 N002 OUT IN 0 NC_01 LTC2997
R2 OUT 0 10K
V1 IN 0 3.3
C1 N001 N002 470p
Q1 N001 N001 N002 0 2N3904
.model NPN NPN
.model PNP PNP
.lib C:\users\brian\My Documents\LTspiceXVII\lib\cmp\standard.bjt
.tran 13m startup
.temp -50 -25 0 25 50 85
* LTC2997 - Remote/Internal Temperature Sensor\nHigh Accuracy, Analog Output, Temperature Sensor\nVCC: 2.5V to 5.5V     Output: 4mV/°K @ ±200µA
* Note:\n  If the simulation model is not found please update with the "Sync Release" command from the "Tools" menu.\n  It remains the customer's responsibility to verify proper and reliable operation in the actual application.\n  Component substitution and printed circuit board layout may significantly affect circuit performance or reliability.\n  Contact your local sales representative for assistance. This circuit is distributed to customers only for use with LTC parts.\n  Copyright © 2015 Linear Technology Inc. All rights reserved.
.lib LTC2997.sub
.backanno
.end
