* Z:\mnt\spice-netlists\LTC3525-33_TA05_DC879A-A.asc
XU1 IN 0 IN OUT MP_01 N001 LTC3525-3.3
L1 IN N001 10µ
V1 IN 0 3
R1 IN 0 2.2Meg
Rload OUT 0 23
C1 IN 0 3.3µ
C2 OUT 0 10µ Rser=0.001
.tran 1m startup
* Note:\n  If the simulation model is not found please update with the "Sync Release" command from the "Tools" menu.\n  It remains the customer's responsibility to verify proper and reliable operation in the actual application.\n  Component substitution and printed circuit board layout may significantly affect circuit performance or reliability.\n  Contact your local sales representative for assistance. This circuit is distributed to customers only for use with LTC parts.\n  Copyright © 2012 Linear Technology Inc. All rights reserved.
* LTC3525-3.3 - 400mA µPower Synchronous Step-Up DC/DC Converter with Output Disconnect\nCompact, High Efficiency Boost for Two Cell Alkaline or NiMH\nInput: 1.8V to 3.2V       Output: 3.3V @ 140mA
.lib LTC3525-3.3.sub
.backanno
.end
