* Z:\mnt\spice-netlists\LTC3805-5.asc
L1 IN N002 21
L2 OUT N003 336
M쬞1 N002 N005 N006 N006 Si3440DV
R1 N006 0 0.035
D1 N003 0 GSD2004W-V
C1 0 OUT 0.47
XU1 NC_01 N013 N014 N004 N009 MP_02 N010 0 N004 N005 0 LTC3805-5
R2 N013 N012 34.8K
C2 N012 0 4.7n
R3 N009 0 100K
V1 IN 0 24
Q2 N014 N011 N007 0 2N3906
R4 N004 N007 511
R5 N004 N008 511
R6 N014 0 806
R7 N011 OUT 107K
Q3 N011 N011 N008 0 2N3906
C3 0 N004 0.1
Q4 IN N001 N004 0 2N3904
D2 0 N001 BZX84C8V2L
R8 IN N001 100K
R9 N006 N010 3.16K
Rload 0 OUT 2K
.model D D
.lib C:\users\brian\My Documents\LTspiceXVII\lib\cmp\standard.dio
.model NPN NPN
.model PNP PNP
.lib C:\users\brian\My Documents\LTspiceXVII\lib\cmp\standard.bjt
.model NMOS NMOS
.model PMOS PMOS
.lib C:\users\brian\My Documents\LTspiceXVII\lib\cmp\standard.mos
.tran 2m startup
K L1 L2 1
* VPH2-0216-R
* Note:\n  If the simulation model is not found please update with the "Sync Release" command from the "Tools" menu.\n  It remains the customer's responsibility to verify proper and reliable operation in the actual application.\n  Component substitution and printed circuit board layout may significantly affect circuit performance or reliability.\n  Contact your local sales representative for assistance. This circuit is distributed to customers only for use with LTC parts.\n  Copyright  2010 Linear Technology Inc. All rights reserved.
* LTC3805-5, Adjustable Frequency Current Mode Flyback/Boost/SEPIC DC/DC Controller\nInput: 18V to 36V      Output: -100V @ 50mA
* 1:4
.lib LTC3805-5.sub
.backanno
.end
