* Z:\mnt\spice-netlists\LTC3406.asc
L1 N001 OUT 2.2µ Rser=.0042
R1 OUT N002 301K
V1 IN 0 3.3 Rser=0.01
C1 OUT 0 10µ V=10 Irms=8.919 Rser=0.005 MTBF=0 Lser=0 mfg="KEMET" pn="C1210C106K8PAC" type="X5R" ppPkg=1
R2 N002 0 301K
I1 OUT 0 600m load
C2 IN 0 4.7µ V=10 Irms=8.919 Rser=0.005 MTBF=0 Lser=0 mfg="KEMET" pn="C1210C106K8PAC" type="X5R" ppPkg=1
C3 OUT N002 22p
XU1 IN 0 N001 IN N002 LTC3406
.tran 200u startup
* Note:\n  If the simulation model is not found please update with the "Sync Release" command from the "Tools" menu.\n  It remains the customer's responsibility to verify proper and reliable operation in the actual application.\n  Component substitution and printed circuit board layout may significantly affect circuit performance or reliability\n  Contact your local sales representative for assistance. This circuit is distributed to customers only for use with LTC parts\n  Copyright © 2006 Linear Technology Inc. All rights reserved.
* LTC3406 - 1.5MHz, 600mA, Synchronous Step-Down Regulator in ThinSOT\nInput: 3.3V     Output: 1.2V @ 600mA
.lib LTC3406.sub
.backanno
.end
