* Z:\mnt\spice-netlists\LTC3544.asc
V1 IN 0 5V
L1 N002 OUT1 10
C1 OUT1 0 10
R1 OUT1 N003 59K
R2 N003 0 118K
L2 N005 OUT2 3.3
C2 OUT2 0 10
R3 OUT2 N007 133K
R4 N007 0 107K
L3 N001 OUT3 3.3
C3 OUT3 0 10
L4 N004 OUT4 4.7
C4 OUT4 0 10
R5 OUT4 N006 93.1K
R6 N006 0 107K
XU1 N006 OUT3 IN N004 N001 0 IN N005 IN N007 N003 IN N002 0 IN IN LTC3544
C5 OUT1 N003 20p
Rload1 OUT1 0 12
Rload2 OUT2 0 6
Rload3 OUT3 0 4
Rload4 OUT4 0 7.5
.tran 1m startup
* LTC3544 - Quad Synchronous Step-Down Regulator: 2.25MHz, 300mA, 200mA, 200mA, 100mA\nInput:  5V   Outputs:  1.2V@100mA, 1.8V@300mA, 0.8V@200mA, and 1.5V@200mA
* Note:\n  If the simulation model is not found please update with the "Sync Release" command from the "Tools" menu.\n  It remains the customer's responsibility to verify proper and reliable operation in the actual application.\n  Component substitution and printed circuit board layout may significantly affect circuit performance or reliability\n  Contact your local sales representative for assistance. This circuit is distributed to customers only for use with LTC parts\n  Copyright  2008 Linear Technology Inc. All rights reserved.
.lib LTC3544.sub
.backanno
.end
