* Z:\mnt\spice-netlists\LTC3588.asc
XU1 N001 N002 0 N003 N004 OUT N005 N005 0 N006 0 LTC3588-1
L1 N004 OUT 22µ Ipk=0.75 Rser=0.19
C1 N003 0 22µ V=25V
C2 OUT 0 100µ V=6.3V
Rload OUT 0 500K
V1 N002 N001 SINE(0 24 41) Rser=119K
V2 N005 0 5
I1 OUT 0 PULSE(0 30m 5 1u 1u 10m 3)
.tran 10 startup
* Notes:\n  If the simulation model is not found please update with the "Sync Release" command from the "Tools" menu.\n  It remains the customer's responsibility to verify proper and reliable operation in the actual application.\n  Component substitution and printed circuit board layout may significantly affect circuit performance or reliability.\n  Contact your local sales representative for assistance. This circuit is distributed to customers only for use with LTC parts.\n  Copyright © 2010 Linear Technology Inc. All rights reserved.
* LTC3588-1,  Piezoelectric Energy Harvesting Power Supply with Simulated Remote Sensor/Transmitter\nInput: 24V 41Hz  Rs=119K     Output: 3.3V with 30mA 10msec Pulse Load
* Piezoelectric Device\nMIDE V22BL\n1.4 Gpk Force at 41Hz\nwith Tip Mass of 1 gm.
.lib LTC3588-1.sub
.backanno
.end
