* Z:\mnt\spice-netlists\LTC3026_DC833A_TA01A.asc
L1 IN N001 10
V1 IN 0 1.5
C1 N002 0 4.7
R1 OUT N004 100K
XU1 IN MP_01 0 N001 N002 IN N004 N003 OUT LTC3026
R2 OUT N003 8.06K
R3 N003 0 4.02K
C2 OUT 0 10
C3 IN 0 4.7
Rload OUT 0 .8
.tran 10m startup
* LTC3026 - 1.5A Low Input Voltage VLDO Linear Regulator\nLow Input Voltage Linear Regulator\nInput: 1.14V to 3.5V     Output: 1.2V @ 1A
* Notes:\n  If the simulation model is not found please update with the "Sync Release" command from the "Tools" menu.\n  It remains the customer's responsibility to verify proper and reliable operation in the actual application.\n  Component substitution and printed circuit board layout may significantly affect circuit performance or reliability.\n  Contact your local sales representative for assistance. This circuit is distributed to customers only for use with LTC parts.\n  Copyright  2015 Linear Technology Inc. All rights reserved.
.lib LTC3026.lib
.backanno
.end
