* Z:\mnt\spice-netlists\LTC3026_TA02.asc
V1 IN 0 2.5
C1 N001 0 4.7
R1 OUT1 N006 100K
XU1 IN MP_01 0 N002 N001 IN N006 N004 OUT1 LTC3026
R2 OUT1 N004 14K
R3 N004 0 4.02K
C2 OUT1 0 10
L1 IN N002 10
Rload1 OUT1 0 1.2
C4 IN 0 4.7
C5 N001 0 1
R4 OUT2 N007 100K
XU2 IN MP_02 0 N003 N001 IN N007 N005 OUT2 LTC3026
R5 OUT2 N005 11K
R6 N005 0 4.02K
C6 OUT2 0 10
C7 IN 0 1
Rload2 OUT2 0 1
.tran 1m startup
* LTC3026 - 1.5A Low Input Voltage VLDO Linear Regulator\nUsing a Single Boost Converter to Drive Multiple Linear Regulators\nInput: 1.9V to 3.5V    Output: 1.8V @ 1.5A & 1.5V @ 1.5A
* Note:\n  If the simulation model is not found please update with the "Sync Release" command from the "Tools" menu.\n  It remains the customer's responsibility to verify proper and reliable operation in the actual application.\n  Component substitution and printed circuit board layout may significantly affect circuit performance or reliability\n  Contact your local sales representative for assistance. This circuit is distributed to customers only for use with LTC parts\n  Copyright  2011, 2014 Linear Technology Inc. All rights reserved.
* NC
.lib LTC3026.lib
.backanno
.end
