* Z:\mnt\spice-netlists\LTC3407.asc
L1 N002 OUT1 2.2µ Rser=.0042 Rpar=5K
R1 OUT1 N004 604K
V1 IN 0 3.3 Rser=0.01
C1 OUT1 0 10µ V=10 Irms=8.919 Rser=0.005 MTBF=0 Lser=0 mfg="KEMET" pn="C1210C106K8PAC" type="X5R" ppPkg=1
R2 N004 0 604K
I1 OUT1 0 600m load
C2 IN 0 10µ V=10 Irms=8.919 Rser=0.005 MTBF=0 Lser=0 mfg="KEMET" pn="C1210C106K8PAC" type="X5R" ppPkg=1
C3 OUT1 N004 10p
XU1 N004 IN IN N002 0 IN N001 MP_01 IN N003 LTC3407
L2 N001 OUT2 2.2µ Rser=.0042 Rpar=5K
C4 OUT2 N003 10p
R3 OUT2 N003 887K
R4 N003 0 442K
C5 OUT2 0 10µ V=10 Irms=8.919 Rser=0.005 MTBF=0 Lser=0 mfg="KEMET" pn="C1210C106K8PAC" type="X5R" ppPkg=1
I2 OUT2 0 600m load
.tran 300u startup
* Note:\n  If the simulation model is not found please update with the "Sync Release" command from the "Tools" menu.\n  It remains the customer's responsibility to verify proper and reliable operation in the actual application.\n  Component substitution and printed circuit board layout may significantly affect circuit performance or reliability.\n  Contact your local sales representative for assistance. This circuit is distributed to customers only for use with LTC parts.\n  Copyright © 2006 Linear Technology Inc. All rights reserved.
* LTC3407 - Dual 1.5MHz, 600mA, Synchronous Step-Down Regulator in 3×3 DFN Package\nInput: 3.3V     Output1: 1.2V @ 600mA         Output2: 1.8V @ 600mA
.lib LTC3407.sub
.backanno
.end
