* Z:\mnt\spice-netlists\LTC3605A_DC1897B.asc
L1 N004 OUT 1
R1 OUT N005 2K
V1 IN 0 12
R2 N005 0 1K
R3 N006 0 162K
R4 N008 N007 15K
C1 OUT 0 100
C2 N007 0 10p
C3 IN 0 22 x2
C4 N008 0 220p
I1 OUT 0 PULSE(0.1 5 300u 5n 5n 50u 100u) load
C5 N003 N004 0.1
C6 N001 0 2.2
C7 N002 0 0.001
XU1 N006 N001 N001 N005 N002 N007 IN NC_01 OUT 0 N004 MP_02 MP_03 MP_04 MP_05 MP_06 IN MP_07 IN N003 N001 0 NC_08 0 LTC3605
D1 N001 N003 CMDSH2-3
.model D D
.lib C:\users\brian\My Documents\LTspiceXVII\lib\cmp\standard.dio
.tran 500u startup
* LTC3605A - 20V, 5A Monolithic Synchronous Step-down Regulator\nHigh Efficiency 1MHz, 5A Buck Regulator\nInput: 4V to 20V     Output: 1.8V @ 5A, Fsw = 1MHz
* Note:\n  If the simulation model is not found please update with the "Sync Release" command from the "Tools" menu.\n  It remains the customer's responsibility to verify proper and reliable operation in the actual application.\n  Component substitution and printed circuit board layout may significantly affect circuit performance or reliability\n  Contact your local sales representative for assistance. This circuit is distributed to customers only for use with LTC parts\n  Copyright  2014 Linear Technology Inc. All rights reserved.
.lib LTC3605.sub
.backanno
.end
