* Z:\mnt\spice-netlists\LTC3458L.asc
L1 IN N001 4.7
R1 OUT N003 665K
R2 N003 0 215K
V1 IN 0 3.3
C1 OUT 0 22
C2 OUT N003 27p
R3 N006 N005 33K
C3 N006 0 470p
C4 N008 0 .001
C5 N007 0 .01
R4 N007 0 133K
R5 N004 0 84.5K
R6 N002 0 200K
XU1 N001 IN MP_01 IN N004 N002 N003 N005 0 N008 N007 OUT 0 LTC3458L
I1 OUT 0 600m load
.tran .6m startup
* LTC3458L -  Synchronous Boost Converter\nInput: 3.3V     Output: 5V @ 600mA
* Note:\n  If the simulation model is not found please update with the "Sync Release" command from the "Tools" menu.\n  It remains the customer's responsibility to verify proper and reliable operation in the actual application.\n  Component substitution and printed circuit board layout may significantly affect circuit performance or reliability\n  Contact your local sales representative for assistance. This circuit is distributed to customers only for use with LTC parts\n  Copyright  2006 Linear Technology Inc. All rights reserved.
.lib LTC3458L.sub
.backanno
.end
