* Z:\mnt\spice-netlists\LTC3412A.asc
L1 N003 OUT 1µ
R1 OUT N006 232K
V1 IN 0 3.3
R2 N006 0 187K
R3 N007 0 309K
R4 N005 N004 7.5K
C1 OUT 0 100µ
C2 N004 0 1000p
R5 IN N002 1Meg
R6 IN N001 100K
XU1 N007 IN 0 N003 0 IN IN N001 N006 N005 N002 LTC3412A
C3 IN 0 22µ x2
C4 N002 0 1000p
C5 N005 0 100p
I1 OUT 0 3 load
.tran 1.5m startup
* LTC3412A - 3A, 4MHz, Monolithic Synchronous Step-down Regulator\nInput: 3.3V     Output: 1.8V @ 3A
* Note:\n  If the simulation model is not found please update with the "Sync Release" command from the "Tools" menu.\n  It remains the customer's responsibility to verify proper and reliable operation in the actual application.\n  Component substitution and printed circuit board layout may significantly affect circuit performance or reliability\n  Contact your local sales representative for assistance. This circuit is distributed to customers only for use with LTC parts\n  Copyright © 2006 Linear Technology Inc. All rights reserved.
.lib LTC3412A.sub
.backanno
.end
