* Z:\mnt\spice-netlists\LTC3240-2.5.asc
C1 N002 N001 1µ V=10 Irms=10.541 Rser=0.004 MTBF=0 Lser=0 mfg="KEMET" pn="C0603C105K8PAC" type="X5R" ppPkg=1
C2 OUT 0 4.7µ V=10 Irms=10.158 Rser=0.004 MTBF=0 Lser=0 mfg="KEMET" pn="C0805C475K8PAC" type="X5R" ppPkg=1
C3 IN 0 1µ V=10 Irms=10.541 Rser=0.004 MTBF=0 Lser=0 mfg="KEMET" pn="C0603C105K8PAC" type="X5R" ppPkg=1
V1 IN 0 1.8
Rload OUT 0 41
XU1 0 IN OUT N001 N002 IN LTC3240-2.5
.tran 1.5m startup
* LTC3240-3.3 - Step-Up/Step-Down Charge Pump Converter in 2×2 DFN\nInput: 1.8V-5.5V   Output 2.5V @ 60mA
* Notes:\n \n  1.  All Capacitors are Ceramic\n \n  2.  If the simulation model is not found please update with the "Sync Release" command from the "Tools" menu.\n       It remains the customer's responsibility to verify proper and reliable operation in the actual application.\n       Component substitution and printed circuit board layout may significantly affect circuit performance or reliability\n       Contact your local sales representative for assistance. This circuit is distributed to customers only for use with LTC parts\n       Copyright © 2006 Linear Technology Inc. All rights reserved.
.lib LTC3240-2.5.sub
.backanno
.end
