* Z:\mnt\spice-netlists\LTC3639_DN532F1.asc
V1 IN 0 120
L1 N001 OUT 1000µ Rser=50m
C1 OUT 0 100µ V=6.3 Irms=0 Rser=0.001 Lser=0
Rload OUT 0 33
XU1 N001 0 IN MP_01 IN N002 0 0 OUT N002 NC_02 NC_03 LTC3639
C2 IN 0 1µ
.tran 10m startup
* LTC3639 - High Efficiency, 150V, 100mA Synchronous Step-Down Regulator\nHigh Efficiency, 150V Synchronous Buck Converter\nInput: 4V to 150V     Output: 3.3V @ 100mA
* Note:\n  If the simulation model is not found please update with the "Sync Release" command from the "Tools" menu.\n  It remains the customer's responsibility to verify proper and reliable operation in the actual application.\n  Component substitution and printed circuit board layout may significantly affect circuit performance or reliability\n  Contact your local sales representative for assistance. This circuit is distributed to customers only for use with LTC parts\n  Copyright © 2014 Linear Technology Inc. All rights reserved.
.lib LTC3639.sub
.backanno
.end
