* Z:\mnt\spice-netlists\LTC3736-2.asc
M§Q1b N005 N007 0 0 Si7540DP_N
C1 N001 0 1µ
L1 N005 OUT1 .82µ Rser=0.014
R1 N009 0 59K
R2 N009 OUT1 187K
C2 OUT1 0 100µ Rser=0.003
C3 N012 N011 1000p
C4 N012 0 22p
R3 N011 0 15K
V1 IN 0 3.3
M§Q2b N006 N008 0 0 Si7540DP_N
R4 N010 0 59K
R5 N010 OUT2 118K
C5 OUT2 0 100µ Rser=0.003
C6 N013 N014 680p
C7 N013 0 22p
R6 N014 0 33K
L2 N006 OUT2 .82µ Rser=0.014
M§Q2a N006 N004 IN IN Si7540DP_P
R7 IN N001 10
R8 IN N002 100K
M§Q1a N005 N003 IN IN Si7540DP_P
C8 N016 0 100p
R9 N015 OUT1 118K
R10 0 N015 59K
C9 IN 0 22µ
C10 IN 0 22µ
Rload2 OUT2 0 .36
Rload1 OUT1 0 .5
XU1 N005 N012 N009 N001 N001 NC_01 0 N001 N002 N010 N013 N015 N006 IN 0 N008 N016 N004 MP_02 N003 0 N007 0 IN LTC3736-2
C11 OUT2 N010 22p
C12 N009 OUT1 100p
.model NMOS NMOS
.model PMOS PMOS
.lib C:\users\brian\My Documents\LTspiceXVII\lib\cmp\standard.mos
.tran 2m startup
* LTC3736-2  -  2-Phase, 550KHz, Dual Output Synchronous DC/DC Converter with Output Tracking \nInput: 3.3V     Outputs: 2.5V@5A and 1.8V@5A
* Note:\n  If the simulation model is not found please update with the "Sync Release" command from the "Tools" menu.\n  It remains the customer's responsibility to verify proper and reliable operation in the actual application.\n  Component substitution and printed circuit board layout may significantly affect circuit performance or reliability\n  Contact your local sales representative for assistance. This circuit is distributed to customers only for use with LTC parts\n  Copyright © 2006 Linear Technology Inc. All rights reserved.
.lib LTC3736-2.sub
.backanno
.end
