* Z:\mnt\spice-netlists\LTC3025-1_LTC3406-15_TA02_.asc
C1 OUT2 0 1µ
V1 IN 0 4
L1 N001 OUT1 2.2µ
C2 IN 0 4.7µ
C3 OUT1 0 10µ
Rload1 OUT1 0 5
Rload2 OUT2 0 2.4
XU1 IN 0 N001 IN OUT1 LTC3406-x.x top=330K bot=220K
XU2 IN 0 OUT1 OUT2 N002 OUT1 LTC3025-1
R1 OUT2 N002 80.6K
R2 N002 0 40.2K
.tran 1m startup
* LTC3025-1 - 500mA µPower VLDO Linear Regulator\nLTC3406-1.5 - 1.5MHz, 600mA Synchronous Step-Down Regulator\nInput: 2.7V to5.5V     Output 1: 1.5V @ 600mA     Output 2: 1.2V @ 500mA
* Note:\n  If the simulation model is not found please update with the "Sync Release" command from the "Tools" menu.\n  It remains the customer's responsibility to verify proper and reliable operation in the actual application.\n  Component substitution and printed circuit board layout may significantly affect circuit performance or reliability\n  Contact your local sales representative for assistance. This circuit is distributed to customers only for use with LTC parts\n  Copyright © 2014 Linear Technology Inc. All rights reserved.
.lib LTC3025.lib
.lib LTC3406-x.x.sub
.backanno
.end
