* Z:\mnt\spice-netlists\LTC4219-12_TA01A_DC1594A.asc
C1 N004 0 .1µ
V1 IN 0 12
C2 OUT 0 330µ
R1 N003 0 20K
R2 OUT N002 20K
S1 0 OUT N001 0 SHORT
V2 N001 0 PULSE(0 1 240m 1m 1m 10m)
XU1 NC_01 IN 0 0 N004 N004 0 OUT MP_02 MP_03 MP_04 MP_05 NC_06 N002 NC_07 NC_08 N003 NC_09 LTC4219-12
Rload OUT 0 3
.model SHORT SW(Ron=10m Roff=1K Vt=.5 Vh=-.4)
.tran 400m startup
* LTC4219 - 5A Integrated Hot Swap Controller\nSingle Channel 12V, 5A Hot Swap Controller
* Note:\n  If the simulation model is not found please update with the "Sync Release" command from the "Tools" menu.\n  It remains the customer's responsibility to verify proper and reliable operation in the actual application.\n  Component substitution and printed circuit board layout may significantly affect circuit performance or reliability.\n  Contact your local sales representative for assistance. This circuit is distributed to customers only for use with LTC parts.\n  Copyright © 2014 Linear Technology Inc. All rights reserved.
.lib LTC4219-12.sub
.backanno
.end
