* Z:\mnt\spice-netlists\LTC4261_TA01.asc
S1 OUT 0 N005 0 SHORT
S2 N011 0 0 N007 LOAD
S3 N012 0 0 N003 LOAD
V1 0 IN 48
V2 N005 0 PWL(250m 0 +20u 1 +20m 1 +20u 0)
C1 N002 IN .01
R1 0 N002 453K
R2 N002 N004 1
R3 N004 N006 16.9K
R4 N006 IN 11.8K
C2 N008 IN .1
R5 N018 IN .008
R6 N015 N016 10
M쬞1 OUT N015 N018 N018 IRF1310
C3 0 N016 .047
C4 N001 0 1
R7 0 N001 4K
R8 0 N003 24K
R9 0 N007 24K
C5 0 OUT 330
C6 N013 IN .220
C7 N014 IN .047
C8 0 N009 .033
R10 N009 N017 1K
R11 N010 OUT 1Meg
C9 N017 OUT .01
XU1 N001 N002 N004 N006 N008 N008 N013 N014 IN N018 N015 N010 N009 N007 N003 IN IN LTC4261 OVRTRY=1 UVRTRY=1 OCRTRY=0 PBRTRY=0
Rload2 N011 OUT 35
Rload3 N012 OUT 35
Rload1 0 OUT 35
.model NMOS NMOS
.model PMOS PMOS
.lib C:\users\brian\My Documents\LTspiceXVII\lib\cmp\standard.mos
.tran 300m startup
.model SHORT SW(Ron=5 Roff=1G Vt=.5 Vh=-.4)
.model LOAD SW(Ron=1m Roff=1G Vt=5 Vh=-1)
* LTC4261 - Negative Voltage Hot Swap Controllers with ADC and I콯 Monitoring\n-48V/200W Hot Swap Controller with I2C and ADC
* Note:\n  If the simulation model is not found please update with the "Sync Release" command from the "Tools" menu.\n  It remains the customer's responsibility to verify proper and reliable operation in the actual application.\n  Component substitution and printed circuit board layout may significantly affect circuit performance or reliability.\n  Contact your local sales representative for assistance. This circuit is distributed to customers only for use with LTC parts.\n  Copyright  2014 Linear Technology Inc. All rights reserved.
.lib LTC4261.sub
.backanno
.end
