* Z:\mnt\spice-netlists\LTC4225-2_TA01A.asc
M쬞2 N002 N003 OUT OUT Si7386DP
M쬞1 N002 N007 N001 N001 Si7386DP
M쬞3 N024 N021 N023 N023 Si7386DP
M쬞4 N024 N022 OUT OUT Si7386DP
C1 IN1 N006 .1
R7 IN1 N009 100K
R8 IN1 N010 100K
R5 N005 N004 47
R3 N003 N005 10
C3 N004 0 .015
C5 0 N012 .047
C6 0 N014 .047
R9 IN2 N017 100K
R10 IN2 N015 100K
R6 N018 N019 47
C4 N019 0 .015
R4 N022 N018 10
C2 IN2 N020 .1
R12 IN1 N008 137K
R11 N008 0 20K
R13 N016 0 20K
C7 N008 0 .01
C8 0 N016 .01
C9 N011 0 .1
R14 IN2 N016 137K
V1 IN1 0 11
V2 IN2 0 12
R1 IN1 N001 .004
R2 IN2 N023 .004
XU1 N001 IN1 N011 0 N016 IN2 N023 N021 N020 N018 OUT N015 N017 0 N014 N012 0 N008 N009 N010 OUT N005 N006 N007 LTC4225-2
C10 OUT 0 100
S1 OUT 0 N013 0 SHORT
V3 N013 0 PWL(0 0 300m 0 +100u 1 + 10m 1 +100u 0 )
Rload OUT 0 3
.model NMOS NMOS
.model PMOS PMOS
.lib C:\users\brian\My Documents\LTspiceXVII\lib\cmp\standard.mos
.tran 1 startup
.model SHORT SW(Ron=10m Roff=1.7 Vt=.5 Vh=-200m)
* LTC4225-2 - Dual Ideal Diode and Hot Swap Controller\nDual 12V/7.6A Ideal Diode and Hot Swap Controller for 킫CA Applications
* Note:\n  If the simulation model is not found please update with the "Sync Release" command from the "Tools" menu.\n  It remains the customer's responsibility to verify proper and reliable operation in the actual application.\n  Component substitution and printed circuit board layout may significantly affect circuit performance or reliability.\n  Contact your local sales representative for assistance. This circuit is distributed to customers only for use with LTC parts.\n  Copyright  2014 Linear Technology Inc. All rights reserved.
.lib LTC4225-2.sub
.backanno
.end
