* Z:\mnt\spice-netlists\LTC4412_F02.asc
XU1 N002 0 0 N004 N003 OUT LTC4412
M§Q1 N002 N003 OUT OUT FDC638P
R1 OUT N004 470K
C1 OUT 0 10µ
Rload OUT 0 150
V1 N002 0 14.4
V2 N001 0 PWL(0 0 1 15)
M§Q2 N001 N004 OUT OUT FDC638P
.model NMOS NMOS
.model PMOS PMOS
.lib C:\users\brian\My Documents\LTspiceXVII\lib\cmp\standard.mos
.tran 2
* LTC4412 - Low Loss PowerPath Controller in ThinSOT\nAutomatic Switchover of Load Between a Battery and a Wall Adapter\nInput: 3V to 28V
* Note:\n  If the simulation model is not found please update with the "Sync Release" command from the "Tools" menu.\n  It remains the customer's responsibility to verify proper and reliable operation in the actual application.\n  Component substitution and printed circuit board layout may significantly affect circuit performance or reliability.\n  Contact your local sales representative for assistance. This circuit is distributed to customers only for use with LTC parts.\n  Copyright © 2012 Linear Technology Inc. All rights reserved.
.lib LTC4412.sub
.backanno
.end
