* Z:\mnt\spice-netlists\LTC4358_TA01.asc
V1 N001 0 PWL(0 12 50m 0 100m 12)
V2 N003 0 PWL(0 0 50m 12 100m 0)
XU1 N002 N001 N002 NC_01 N002 0 LTC4358
XU2 N002 N003 N002 NC_02 N002 0 LTC4358
Rload N002 0 2
.tran 100m
* LTC4358 - 5A Ideal Diode\n12V, 5A Diode-OR\nInput: 12V     Output: 5A
* Note:\n  If the simulation model is not found please update with the "Sync Release" command from the "Tools" menu.\n  It remains the customer's responsibility to verify proper and reliable operation in the actual application.\n  Component substitution and printed circuit board layout may significantly affect circuit performance or reliability\n  Contact your local sales representative for assistance. This circuit is distributed to customers only for use with LTC parts\n  Copyright © 2012 Linear Technology Inc. All rights reserved.
.lib LTC4358.sub
.backanno
.end
