* Z:\mnt\spice-netlists\LTC6244_60kHz_PeakHold_Pos_and_Neg.asc
V1 VCC 0 8.5
V2 VEE 0 -8.5
V3 N009 0 SINE(0 4 60k 10u 0 0 3)
R1 N006 IN 10k
XU1 N007 N002 VCC 0 N003 LTC6244
C1 N005 0 10n
R2 N002 VEE 10k
R3 N005 N004 33
R4 N005 0 10Meg
D1 0 N006 BAT54
D2 N003 N004 5082_2804
D3 N003 N002 5082_2804
R5 N006 0 10k
XU2 N005 N001 VCC 0 OUT+ LTC6244
R6 N001 0 10k
R7 OUT+ N001 10k
R8 N006 N007 1k
V4 IN N009 SINE(0 8 60k 300u 0 0 3)
R9 N014 IN 10k
C2 N013 0 10n
R10 N010 VCC 10k
R11 N013 N012 33
R12 N013 0 10Meg
D4 N012 N011 5082_2804
D5 N010 N011 5082_2804
R13 N014 0 10k
R14 N008 0 10k
R15 OUT- N008 10k
R16 N014 N015 1k
D6 N014 0 BAT54
XU3 N015 N010 VDD VEE N011 LTC6244
XU4 N013 N008 VDD VEE OUT- LTC6244
V5 VDD 0 2.5
.model D D
.lib C:\users\brian\My Documents\LTspiceXVII\lib\cmp\standard.dio
.tran 0 600u 0
.model 5082_2804 D(Is=22n Rs=25 N=1.08 Cjo=1.6p M=0.5
+Eg=.69 Xti=2 Iave=100m Vpk=75 mfg=Avago type=Schottky)
* Note:\n  If the simulation model is not found please update with the "Sync Release" command from the "Tools" menu.\n  It remains the customer's responsibility to verify proper and reliable operation in the actual application.\n  Component substitution and printed circuit board layout may significantly affect circuit performance or reliability.\n  Contact your local sales representative for assistance. This circuit is distributed to customers only for use with LTC parts.\n  Copyright © 2016 Linear Technology Inc. All rights reserved.
* LTC6244 - Dual 50MHz, Low Noise, Rail-to-Rail, CMOS Op Amp\n60kHz, Positive and Negative Peak Detector
.lib LTC5.lib
.backanno
.end
