* Z:\mnt\spice-netlists\LTC6991_F14.asc
V1 N002 0 5V
R1 N003 0 100K
C1 N002 0 0.1µ
R2 N003 CTRL 100K
V2 CTRL 0 SINE(.75 .75 10)
XU1 N001 0 N003 0 N002 OUT LTC6991
.tran 100m startup
* LTC6991 - TimerBlox: Resettable, Low Frequency Oscillator\nLow Frequency Voltage Controlled Oscillator\nControl: 0V to 1.5V     Output: 250Hz to 1kHz
* Note:\n  If the simulation model is not found please update with the "Sync Release" command from the "Tools" menu.\n  It remains the customer's responsibility to verify proper and reliable operation in the actual application.\n  Component substitution and printed circuit board layout may significantly affect circuit performance or reliability.\n  Contact your local sales representative for assistance. This circuit is distributed to customers only for use with LTC parts.\n  Copyright © 2013 Linear Technology Inc. All rights reserved.
.lib LTC6991.sub
.backanno
.end
