* Z:\mnt\spice-netlists\LTC6244_F11A.asc
V1 +V 0 12
V2 -V 0 -12
XU1 N002 N001 +V -V OUT LTC6244
XU2 Vref N004 +V -V N003 LTC6244
R1 OUT N001 20K
R2 OUT N004 200K
R3 N003 N002 20K
R4 N002 +IN 2K
C1 OUT N001 47p
C2 N004 N003 1000p
C3 N002 0 47p
R5 N001 -IN 2K
V4 Vref 0 5
V6 -IN +IN SINE(0 .1 1K)
V7 +IN 0 SINE(0 10 100)
.tran 10m
* LTC6244 - Dual 50MHz, Low Noise, Rail-to-Rail, CMOS Op Amp\nLow Noise AC Difference Amplifier
* Note:\n  If the simulation model is not found please update with the "Sync Release" command from the "Tools" menu.\n  It remains the customer's responsibility to verify proper and reliable operation in the actual application.\n  Component substitution and printed circuit board layout may significantly affect circuit performance or reliability\n  Contact your local sales representative for assistance. This circuit is distributed to customers only for use with LTC parts\n  Copyright © 2015 Linear Technology Inc. All rights reserved.
.lib LTC5.lib
.backanno
.end
