* Z:\mnt\spice-netlists\LTC6090_TA09_LT5400.asc
V1 -V 0 -70
V2 +V 0 70
XU2 NC_01 N007 N004 -V N009 OUT +V N009 LTC6090
XU3 OUT N006 N001 0 N004 N004 N007 N007 NC_02 LT5400-2
C2 N004 0 22p
C3 OUT N007 22p
XU1 NC_03 N002 +IN -V N003 N001 +V N003 LTC6090
XU4 NC_04 N008 -IN -V N010 N006 +V N010 LTC6090
R3 N008 N006 100K
R5 N002 N008 24.9K
R6 N001 N002 100K
C1 N001 N002 22p
C4 N008 N006 22p
V3 +IN N005 SINE(0 .01 10K)
V4 -IN N005 SINE(0 -.01 10K)
V5 N005 0 SINE(0 .1 60)
.tran 16m
* LTC6090 - 140V CMOS Rail-to-Rail Output, Picoamp Input Current Op Amp\nLT5400 - Quad Matched Resistor Network\nWide Common Mode Range 10x Gain Instrumentation Amplifier (<1mV Input-Referred Error)\nInput: 13.9Vp-p Max Differential, ±67V Max Common-Mode (18kHz Max for 140Vp-p Output)      Output: Gain Av = 10 (-3dB at 45kHz)
* Note:\n  If the simulation model is not found please update with the "Sync Release" command from the "Tools" menu.\n  It remains the customer's responsibility to verify proper and reliable operation in the actual application.\n  Component substitution and printed circuit board layout may significantly affect circuit performance or reliability.\n  Contact your local sales representative for assistance. This circuit is distributed to customers only for use with LTC parts.\n  Copyright © 2013 Linear Technology Inc. All rights reserved.
.lib LT5400.lib
.lib LTC5.lib
.backanno
.end
