* Z:\mnt\spice-netlists\LTC6994_TA02_LTC6993.asc
R1 N004 0 604K
V1 N002 0 5
V2 IN 0 PULSE(0 3.3 10m 1n 1n 80m 100m 2)
XU1 IN 0 N004 N005 N002 N001 LTC6994-1
R5 N006 0 121K
R6 N003 N005 1Meg
R7 N005 0 392K
R8 OUT 0 100K
V3 N003 0 5
XU2 N001 0 N006 N005 N003 OUT LTC6993-1
C1 N002 0 0.1µ
C2 N003 0 0.1µ
.tran 200m startup
* Rise Time Delay = 50ms
* One Shot Time = 10ms
* LTC6994 - TimerBlox: Delay Block/ Debouncer\nLTC6993 - TimerBlox:Monostable Pulse Generator (One Shot)\nDelayed One-Shot (50ms Delay with a 10ms One Shot)
* Note:\n  If the simulation model is not found please update with the "Sync Release" command from the "Tools" menu.\n  It remains the customer's responsibility to verify proper and reliable operation in the actual application.\n  Component substitution and printed circuit board layout may significantly affect circuit performance or reliability.\n  Contact your local sales representative for assistance. This circuit is distributed to customers only for use with LTC parts.\n  Copyright © 2010 Linear Technology Inc. All rights reserved.
.lib LTC6993-1.sub
.lib LTC6994-1.sub
.backanno
.end
