* Z:\mnt\spice-netlists\LTC6990_TA01A.asc
V1 N001 0 5
XU1 N001 0 N002 0 N001 OUT LTC6990
R1 N002 0 100K
C1 N001 0 0.1µ
R2 N002 CTRL 100K
V2 CTRL 0 SINE(.75 .75 250 1m)
.tran 5m
* Note:\n  If the simulation model is not found please update with the "Sync Release" command from the "Tools" menu.\n  It remains the customer's responsibility to verify proper and reliable operation in the actual application.\n  Component substitution and printed circuit board layout may significantly affect circuit performance or reliability.\n  Contact your local sales representative for assistance. This circuit is distributed to customers only for use with LTC parts.\n  Copyright © 2013 Linear Technology Inc. All rights reserved.
* LTC6990 - TimerBlox: Voltage Controlled Silicon Oscillator\nVoltage Controlled Oscillator with 16:1 Frequency Range\nControl: 0V to 1.5V     Output: 250kHz to 1MHz (Fout = 1MHz - Vctrl * 0.5MHz/V)
.lib LTC6990.sub
.backanno
.end
