* Z:\mnt\spice-netlists\LTC6101_LT3021_AN105_F201_.asc
R1 N002 0 1K
V1 N001 0 PWL(0 0 1 5)
C1 OUT 0 10µ
XU1 MP_01 MP_02 OUT MP_03 MP_04 MP_05 N002 MP_06 N005 0 MP_07 N005 LT3021
V2 N003 0 5
R2 N003 N005 1
XU2 N002 0 N004 N005 N003 LTC6101
R3 N003 N004 2.5K
R4 N002 N001 24K
R5 OUT 0 1
.tran 1
* LTC6101 - High Voltage, High-Side Current Sense Amplifier\nLT3021 - 500mA, Low Voltage, Very Low Dropout Linear Regulator\nVoltage Controlled Current Source\nInput: 0V to 5V     Output: 500mA to 0mA, 100mA/V
* Notes:\n  If the simulation model is not found please update with the "Sync Release" command from the "Tools" menu.\n  It remains the customer's responsibility to verify proper and reliable operation in the actual application.\n  Component substitution and printed circuit board layout may significantly affect circuit performance or reliability.\n  Contact your local sales representative for assistance. This circuit is distributed to customers only for use with LTC parts.\n  Copyright © 2014 Linear Technology Inc. All rights reserved.
.lib LT3021.lib
.lib LTC3.lib
.backanno
.end
