* Z:\mnt\spice-netlists\LTC6993_TA10_LTC6994.asc
R1 N007 N006 274K
R2 N002 N008 1Meg
R3 N008 0 887K
V1 N001 0 PWL(0 0 1 0 1.01 3.3)
R4 N009 0 191K
V2 N003 0 5
XU1 Delay 0 N009 N010 N003 Test1 LTC6993-1
V3 N006 0 2.5
R5 N007 0 63.4K
C1 N002 0 0.1
XU2 N001 0 N007 N008 N002 Delay LTC6994-1
V4 N002 0 5
C2 N003 0 0.1
R6 N011 0 191K
V5 N004 0 5
C3 N004 0 0.1
R7 N012 0 191K
V6 N005 0 5
C4 N005 0 0.1
R8 N005 N010 1Meg
R9 N010 0 681K
R10 Test3 0 100K
XU5 Test1 0 N011 N010 N004 Test2 LTC6993-3
XU3 Test2 0 N012 N010 N005 Test3 LTC6993-3
.tran 10 startup
* LTC6993 - TimerBlox:Monostable Pulse Generator (One Shot)\nLTC6994 - TimerBlox: Delay Block/ Debouncer\nConsecutive Test Sequencer (One Second Duration Sequential Test Pulses after an Initial Delay)
* Note:\n  If the simulation model is not found please update with the "Sync Release" command from the "Tools" menu.\n  It remains the customer's responsibility to verify proper and reliable operation in the actual application.\n  Component substitution and printed circuit board layout may significantly affect circuit performance or reliability.\n  Contact your local sales representative for assistance. This circuit is distributed to customers only for use with LTC parts.\n  Copyright  2010 Linear Technology Inc. All rights reserved.
* Shared DIV Pin Biasing for Equal One-Shot Timers
.lib LTC6993-1.sub
.lib LTC6993-3.sub
.lib LTC6994-1.sub
.backanno
.end
