* Z:\mnt\spice-netlists\LTC6991_TA07.asc
XU1 N001 0 N004 N005 N002 SHUTTER LTC6991
R1 N002 N005 332K
R2 N005 0 130K
R3 N004 N003 95.3K
V1 N002 0 5
R4 N003 0 2Meg
R5 N003 0 24.5K
C1 N001 0 33µ
R6 SHUTTER N001 100K
C2 N002 0 1µ
R7 N002 N006 1Meg
.tran 100 startup
* Note:\n  If the simulation model is not found please update with the "Sync Release" command from the "Tools" menu.\n  It remains the customer's responsibility to verify proper and reliable operation in the actual application.\n  Component substitution and printed circuit board layout may significantly affect circuit performance or reliability.\n  Contact your local sales representative for assistance. This circuit is distributed to customers only for use with LTC parts.\n  Copyright © 2010 Linear Technology Inc. All rights reserved.
* LTC6991: TimerBlox; Resettable, Low Frequency Oscillator\n8 Second to 8.5 Minute Low Frequency Clock (Intervalometer for Time-Lapse Photography)
* Variable R5 set to 24.5k for 10sec
* Close for "slow range"
.lib LTC6991.sub
.backanno
.end
