* Z:\mnt\spice-netlists\LTC6360_F12.asc
XU1 N005 N006 N003 N003 N004 N004 N003 N002 0 LTC6360
V1 N003 0 5
C1 0 N004 10
C2 N004 0 .1
R1 N005 N006 2K
R2 N006 OUT 10
R3 N005 HVIN 10K
C3 OUT 0 330p
R4 N002 N001 1.67K
C4 0 N002 0.1
V2 N001 0 1.67
V3 HVIN 0 SINE(0 10 1000 0.1m)
C5 0 N003 0.1
C6 0 N003 1
C7 N005 N006 10p
.tran 5m
* LTC6360 - Very Low Noise Single-Ended SAR ADC Driver with True Zero Output\n10V Input Signal to a 5V Single-Ended ADC Driver\nInput: 10Vp-p     Output: 0 to 4 Full Scale
* Note:\n  If the simulation model is not found please update with the "Sync Release" command from the "Tools" menu.\n  It remains the customer's responsibility to verify proper and reliable operation in the actual application.\n  Component substitution and printed circuit board layout may significantly affect circuit performance or reliability.\n  Contact your local sales representative for assistance. This circuit is distributed to customers only for use with LTC parts.\n  Copyright  2013 Linear Technology Inc. All rights reserved.
.lib LTC6360.sub
.backanno
.end
