* Z:\mnt\spice-netlists\LTC6993-2_TA06.asc
XU1 N007 N003 N002 0 N005 LT1490A
XU2 N004 N001 N002 0 OUT LT1490A
V1 N006 0 PULSE(0 5 0.5u 0.5u 0.5u 100u 1000u 5)
R1 N007 N006 10K
R2 N007 0 20K
D1 N005 N003 1N4148
R3 N004 N003 2K
C1 N004 0 1µ
R4 N001 OUT 10K
V2 N002 0 5
C2 N002 0 0.1µ
R5 0 N001 4.98K
M§Q1 N004 N008 0 0 IPP052N06L3
R6 0 N008 100K
R7 N009 0 147K
R8 N002 N010 280K
R9 N010 0 1Meg
C3 N002 0 0.1µ
XU3 N006 0 N009 N010 N002 N008 LTC6993-2
.model D D
.lib C:\users\brian\My Documents\LTspiceXVII\lib\cmp\standard.dio
.model NMOS NMOS
.model PMOS PMOS
.lib C:\users\brian\My Documents\LTspiceXVII\lib\cmp\standard.mos
.tran 10ms
* Notes:\n  U2: Converts pulse frequency-to-voltage\n  U3: Generated a staircase output\n  U1: Retriggers and reset the pulse staircase\n \n  If the simulation model is not found please update with the "Sync Release" command from the "Tools" menu.\n  It remains the customer's responsibility to verify proper and reliable operation in the actual application.\n  Component substitution and printed circuit board layout may significantly affect circuit performance or reliability.\n  Contact your local sales representative for assistance. This circuit is distributed to customers only for use with LTC parts.\n  Copyright © 2010 Linear Technology Inc. All rights reserved.
* LTC6993-2 - Pulse Staircase Ramp Generator
.lib LTC.lib
.lib LTC6993-2.sub
.backanno
.end
