* Z:\mnt\spice-netlists\LTC6994.asc
R1 N003 0 604K
R2 N005 0 604K
V2 N002 0 5
V1 IN 0 PULSE(0 5 10m 1u 1u 40m .2)
XU3 IN 0 N003 N004 N002 N001 LTC6994-1
XU1 N001 0 N005 N006 N002 OUT LTC6994-1
R6 N002 N006 1Meg
R7 N006 0 392K
R3 N004 0 1Meg
R4 N002 N004 392K
.tran 400m startup
* Falling Edge Delayed by 50msec
* Rising Edge Delayed by 50msec
* Note:\n  Pulse Inputs must be Seperated by > Pulse Delay\n  If the simulation model is not found please update with the "Sync Release" command from the "Tools" menu.\n  It remains the customer's responsibility to verify proper and reliable operation in the actual application.\n  Component substitution and printed circuit board layout may significantly affect circuit performance or reliability.\n  Contact your local sales representative for assistance. This circuit is distributed to customers only for use with LTC parts.\n  Copyright © 2014 Linear Technology Inc. All rights reserved.
* LTC6994 - TimerBlox: Delay Block/ Debouncer\nProgramable Pulse Delay Block\n10ms Pulse Delayed by 50ms
.lib LTC6994-1.sub
.backanno
.end
