* Z:\mnt\spice-netlists\LTC6258_LTC6992-1_F04A_Oscillator.asc
V1 V+ 0 3V
R1 N001 0 562
C1 OUT N001 4700p
R2 OUT N002 21K
R3 N004 N005 10K
R4 N006 V+ 499K
R5 N006 0 499K
C2 N006 0 1µ
C3 N001 N002 4700p
C4 V+ 0 .1µ
XU1 N003 0 N007 N008 V+ N004 LTC6992-1
R6 N003 0 154K
R7 N003 N007 154K
C5 V+ 0 .1µ
R8 N008 0 182K
R9 V+ N008 976K
C6 N005 0 4700p
R10 N005 N001 10K
XU2 N006 N002 OUT V+ 0 V+ LTC6258
.tran 10m
* LTC6258 - 1.3MHz, 20?A Power Efficient Rail-to-Rail I/O\nLTC6992 - TimerBlox: Voltage-Controlled Pulse Width Modulator\nLow Power Sinewave Generator
* Note:\n  If the simulation model is not found please update with the "Sync Release" command from the "Tools" menu.\n  It remains the customer's responsibility to verify proper and reliable operation in the actual application.\n  Component substitution and printed circuit board layout may significantly affect circuit performance or reliability\n  Contact your local sales representative for assistance. This circuit is distributed to customers only for use with LTC parts\n  Copyright © 2017 Linear Technology Inc. All rights reserved.
.lib LTC3.lib
.lib LTC6992-1.sub
.backanno
.end
