* Z:\mnt\spice-netlists\LTC6268_isoSPI_DiffAmp.asc
XU1 N017 N002 N003 +V 0 NC_01 LTC6268-10
R1 N017 N016 49.9K
R2 0 N017 549
R3 N002 0 549
R4 N003 N002 4.99K
C1 N016 +IN 2.2n
R5 +V N017 10K
V1 +V 0 5
V2 -IN N006 PULSE(0 1 .2u .1n .1n 50n)
C2 N003 N002 .07p
C3 N001 -IN 2.2n
XU2 N015 N004 N005 +V 0 NC_02 LTC6268-10
R6 N004 0 549
R7 N005 N004 4.99K
R8 0 N015 10K
R9 +V N015 191K
C4 OUT N007 1µ
R10 N007 N005 48.7
R11 SCOPE 0 1Meg
C5 SCOPE 0 14p
L1 OUT N008 {Lz2}
L2 N008 N009 {Lz2}
L3 N009 N010 {Lz2}
L4 N010 N011 {Lz2}
L5 N011 N012 {Lz2}
L6 N012 N013 {Lz2}
L7 N013 N014 {Lz2}
L8 N014 SCOPE {Lz2}
C6 OUT 0 {Cp2}
C7 N008 0 {Cp2}
C8 N009 0 {Cp2}
C9 N010 0 {Cp2}
C10 N011 0 {Cp2}
C11 N012 0 {Cp2}
C12 N013 0 {Cp2}
C13 N014 0 {Cp2}
C14 SCOPE 0 {Cp2}
V3 N006 +IN PULSE(0 -1 .2501u .1n .1n 50n)
R12 N001 N002 49.9K
C15 N015 N003 10n
R13 N017 0 10K
V4 +IN 0 PULSE(0 -1 .1u .1n .1n 50n)
.param Lz2=29n Cp2=11p
* Note:\n  C2 is stray capacitance from a wire positioned above R4 (location and clearance tuned for best settling/stability).\n  If the simulation model is not found please update with the "Sync Release" command from the "Tools" menu.\n  It remains the customer's responsibility to verify proper and reliable operation in the actual application.\n  Component substitution and printed circuit board layout may significantly affect circuit performance or reliability.\n  Contact your local sales representative for assistance. This circuit is distributed to customers only for use with LTC parts.\n  Copyright © 2015 Linear Technology Inc. All rights reserved.
* LTC6268-10 - 4GHz Ultra-Low Bias Current FET Input Op Amp\nOscilloscope Differential Probe\nHigh common mode range and CMRR, high impedance, super low input current, low input capacitance, high closed loop bandwidth
* Model of scope probe and 2ns of 50 Ohm cable
.tran .5u
.lib LTC2.lib
.backanno
.end
