* Z:\mnt\spice-netlists\LTC6081_TA01.asc
V1 +V 0 5
V2 -V 0 -5
C1 OUT N001 47p
R1 N001 0 10K
R2 OUT N001 1Meg
V3 IN 0 ac 1
R3 N002 IN 2Meg
R4 N003 N002 2Meg
R5 N004 0 1Meg
C2 N004 IN 3.9p
C3 N003 N004 3.9p
C4 N002 0 8.2p
XU2 N003 N001 +V -V OUT NC_01 LTC6081
.ac oct 10 1 1Meg
* LTC6081 - Precision Dual CMOS Rail-to-Rail Input/Output Amplifiers\nShock Sensor Amplifier (Accelerometer)
* Note:\n  If the simulation model is not found please update with the "Sync Release" command from the "Tools" menu.\n  It remains the customer's responsibility to verify proper and reliable operation in the actual application.\n  Component substitution and printed circuit board layout may significantly affect circuit performance or reliability.\n  Contact your local sales representative for assistance. This circuit is distributed to customers only for use with LTC parts.\n  Copyright © 2014 Linear Technology Inc. All rights reserved.
.lib LTC6.lib
.backanno
.end
