* Z:\mnt\spice-netlists\LTM4650-1_DC2455A-A.asc
V1 IN 0 12
Iload OUT 0 PULSE(0 25 400u 1u 1u .1m .4m)
C1 OUT 0 100µ Rser=2m Lser=0.8n x6
C2 N009 0 .001µ
C3 IN 0 22µ V=35 Rser=5m x8
R1 N007 0 90.9K
R2 N001 0 121K
C4 OUT 0 220µ V=4 Irms=2.8 Rser=2m Lser=1.8n x16
R3 N002 N003 10K
R4 N011 0 121K
Rload OUT 0 200m
XU1 N009 N008 N007 0 N007 N008 N009 OUT NC_01 OUT 0 N006 NC_02 OUT N006 N003 N003 0 N005 MP_03 MP_04 MP_05 MP_06 NC_07 N002 IN MP_08 MP_09 MP_10 MP_11 N004 N010 NC_12 0 N001 MP_13 MP_14 NC_15 LTM4650-1
XU2 N009 N008 N007 0 N007 N008 N009 OUT NC_16 NC_17 NC_18 NC_19 NC_20 OUT NC_21 N003 N003 0 N013 MP_22 MP_23 MP_24 MP_25 NC_26 N002 IN MP_27 MP_28 MP_29 MP_30 N012 N014 NC_31 N010 N011 MP_32 MP_33 NC_34 LTM4650-1
C5 IN 0 150µ V=35 Rser=5m
C6 N008 0 .015µ V=6.3 Rser=1.74k
C7 OUT N007 330p
.tran 650u startup
* Note:\n  Smaller values are used for TK/SS capacitors to reduce simulation time. See datasheet for typical values.\n  If the simulation model is not found please update with the "Sync Release" command from the "Tools" menu.\n  It remains the customer's responsibility to verify proper and reliable operation in the actual application.\n  Component substitution and printed circuit board layout may significantly affect circuit performance or reliability\n  Contact your local sales representative for assistance. This circuit is distributed to customers only for use with LTC parts\n  Copyright © 2016 Linear Technology Inc. All rights reserved.
* LTM4650-1 - Dual 25A or Single 50A DC/DC µModule Regulator\nHigh Efficiency 4-Phase 100A Step-Down Regulator\nInput: 4.5V to 15V     Output: 1V @ 100A
.lib LTM4650-1.sub
.backanno
.end
