* Z:\mnt\spice-netlists\LTM4620_F23_DC1498A.asc
V1 IN 0 12
C1 OUT2 0 100µ Rser=5m Lser=0.8n
R1 N006 0 40.2K
C2 N008 0 .001µ
C3 IN 0 22µ V=35 Rser=5m x4
C4 N009 0 .001µ
C5 OUT1 0 100µ Rser=5m Lser=0.8n
C6 OUT1 0 470µ V=4 Irms=2.8 Rser=0.010 Lser=0
R2 N007 0 60.4K
R3 N002 0 100K
C7 OUT2 0 470µ V=4 Irms=2.8 Rser=0.010 Lser=0
R4 N001 N003 10K
R5 N001 N004 10K
XU1 N008 NC_01 N006 0 N007 NC_02 N009 OUT2 OUT1 OUT2 0 N005 NC_03 OUT1 N005 N003 N004 0 NC_04 MP_05 MP_06 MP_07 MP_08 NC_09 N001 IN MP_10 MP_11 MP_12 MP_13 NC_14 NC_15 NC_16 0 N002 MP_17 MP_18 NC_19 LTM4620
Rload1 OUT1 0 0.115
Rload2 OUT2 0 0.092
.tran 750u startup
* Note:\n  Smaller values are used for TK/SS capacitors to reduce simulation time. See datasheet for typical values.\n  If the simulation model is not found please update with the "Sync Release" command from the "Tools" menu.\n  It remains the customer's responsibility to verify proper and reliable operation in the actual application.\n  Component substitution and printed circuit board layout may significantly affect circuit performance or reliability\n  Contact your local sales representative for assistance. This circuit is distributed to customers only for use with LTC parts\n  Copyright © 2012 Linear Technology Inc. All rights reserved.
* LTM4620 - Dual 13A, Step-Down DC/DC µModule Regulator\nHigh Efficiency Dual 13A Step-Down Regulator\nInput : 4.5V to 16V     Outputs: 1.5 V @ 13A & 1.2V @ 13A
.lib LTM4620.sub
.backanno
.end
