* Z:\mnt\spice-netlists\LTM4603.asc
V1 IN 0 12
R1 0 N002 40.2K
C2 OUT 0 22µ Rser=5m
I1 OUT 0 5 load
C3 IN 0 47µ
C4 OUT 0 100µ Rser=3m
C5 IN 0 150µ Rser=9m
XU1 IN 0 OUT 0 N004 N004 OUT 0 NC_01 N002 N005 NC_02 NC_03 NC_04 NC_05 N003 N001 N006 NC_06 N005 LTM4603
C1 N006 0 2200p
R2 IN N001 100k
C6 OUT N002 100p
.tran 2.3m
* Active Load
* LTM4603 - 5A, High Efficiency Step-Down DC/DC µModule\nInput: 12V     Output: 1.5V @ 5A
* Note:\n  If the simulation model is not found please update with the "Sync Release" command from the "Tools" menu.\n  It remains the customer's responsibility to verify proper and reliable operation in the actual application.\n  Component substitution and printed circuit board layout may significantly affect circuit performance or reliability\n  Contact your local sales representative for assistance. This circuit is distributed to customers only for use with LTC parts\n  Copyright © 2006 Linear Technology Inc. All rights reserved.
.lib LTM4603.sub
.backanno
.end
