* Z:\mnt\spice-netlists\LTM4620_DC1780A-C.asc
V1 IN 0 12
Iload OUT 0 PULSE(0 50 600u 1u 1u 150u 300u)
C1 OUT 0 100µ Rser=2m Lser=0.8n x10
C2 N012 0 .001µ
C3 IN 0 22µ V=35 Rser=5m x12
R1 N010 0 90.9K
R2 N002 0 100K
C4 OUT 0 470µ V=4 Irms=2.8 Rser=0.010 Lser=0 x10
R3 N001 N004 10K
XU1 N012 N011 N010 0 N010 N011 N012 OUT NC_01 OUT 0 N009 NC_02 OUT N009 N004 N004 0 N006 MP_03 MP_04 MP_05 MP_06 NC_07 N001 IN MP_08 MP_09 MP_10 MP_11 N005 N013 NC_12 0 N002 MP_13 MP_14 NC_15 LTM4620
R4 N016 0 100K
XU2 N012 N011 N010 0 N010 N011 N012 OUT NC_16 NC_17 NC_18 NC_19 NC_20 OUT NC_21 N004 N004 0 N019 MP_22 MP_23 MP_24 MP_25 NC_26 N001 IN MP_27 MP_28 MP_29 MP_30 N018 N014 0 N013 N016 MP_31 MP_32 NC_33 LTM4620
R5 N003 0 100K
XU3 N012 N011 N010 0 N010 N011 N012 OUT NC_34 NC_35 NC_36 NC_37 NC_38 OUT NC_39 N004 N004 0 N008 MP_40 MP_41 MP_42 MP_43 NC_44 N001 IN MP_45 MP_46 MP_47 MP_48 N007 N015 NC_49 N014 N003 MP_50 MP_51 NC_52 LTM4620
R6 N017 0 100K
XU4 N012 N011 N010 0 N010 N011 N012 OUT NC_53 NC_54 NC_55 NC_56 NC_57 OUT NC_58 N004 N004 0 N021 MP_59 MP_60 MP_61 MP_62 NC_63 N001 IN MP_64 MP_65 MP_66 MP_67 N020 N022 NC_68 N015 N017 MP_69 MP_70 NC_71 LTM4620
Rload OUT 0 0.4
.tran 800u startup
* Note:\n  Smaller values are used for TK/SS capacitors to reduce simulation time. See datasheet for typical values.\n  If the simulation model is not found please update with the "Sync Release" command from the "Tools" menu.\n  It remains the customer's responsibility to verify proper and reliable operation in the actual application.\n  Component substitution and printed circuit board layout may significantly affect circuit performance or reliability\n  Contact your local sales representative for assistance. This circuit is distributed to customers only for use with LTC parts\n  Copyright © 2012 Linear Technology Inc. All rights reserved.
* LTM4620 - Dual 13A, Step-Down DC/DC µModule Regulator\nHigh Efficiency 8-Phase 100A Step-Down Regulator\nInput : 4.5V to 16V       Output: 1V @ 100A
.lib LTM4620.sub
.backanno
.end
