* Z:\mnt\spice-netlists\LTM8054_DC2016A_TA01A.asc
R1 N005 0 36.5K
V1 IN 0 12
R2 N001 N002 100K
R3 N002 0 11K
C1 N001 0 22µ V=25 Irms=0 Rser=0.003 Lser=0 mfg="TDK" pn="C575OX5RIE226M" type="X5R"
C2 N001 0 68µ V=50 Irms=410m Rser=0.2 Lser=0 mfg="Nichicon" pn="UPL1H680MPH" type="Al electrolytic"
Rload OUT 0 4
R4 OUT N001 0.015
C3 IN 0 4.7µ x2
XU1 NC_01 NC_02 MP_03 N004 MP_04 MP_05 N003 NC_06 IN IN IN IN MP_07 MP_08 MP_09 MP_10 MP_11 MP_12 MP_13 MP_14 MP_15 MP_16 MP_17 MP_18 N001 OUT MP_19 MP_20 MP_21 0 MP_22 N004 NC_23 0 N005 NC_24 N002 LTM8054
.tran 1m startup
* LTM8054 - 36Vin, 5.4A Buck-Boost µModule Regulator\nHigh Efficiency Buck-Boost Regulator with Accurate Current Limit & Output Current Monitor\nInput: 6V to 35V       Output: 12V @ 3A with 12V Input, Fsw = 600kHz
* Note:\n  If the simulation model is not found please update with the "Sync Release" command from the "Tools" menu.\n  It remains the customer's responsibility to verify proper and reliable operation in the actual application.\n  Component substitution and printed circuit board layout may significantly affect circuit performance or reliability.\n  Contact your local sales representative for assistance. This circuit is distributed to customers only for use with LTC parts.\n  Copyright © 2015 Linear Technology Inc. All rights reserved.
.lib LTM8054.sub
.backanno
.end
