* Z:\mnt\spice-netlists\LTM8026_TA03.asc
V1 IN 0 24
R1 IN N001 510K
R2 N008 0 68.1K
R3 N005 0 3.09K
XU1 0 N001 N002 N002 OUT N002 MP_01 N007 MP_02 N005 MP_03 MP_04 MP_05 N006 N008 MP_06 MP_07 MP_08 MP_09 MP_10 MP_11 MP_12 MP_13 MP_14 MP_15 MP_16 MP_17 IN LTM8026
C2 OUT 0 47µ
C1 IN 0 10µ
C3 OUT N004 2.2m
C4 N004 0 2.2m
.tran 2m startup
* LTM8026 - 36Vin, 5A CVCC Step-Down µModule Regulator\n36Vin, 5.6A Two 2.5V Series Supercapacitor Charger\nInput: 7V to 36V     Output: 5V @ 5.6A
* Notes: \n  If the simulation model is not found please update with the "Sync Release" command from the "Tools" menu.\n  It remains the customer's responsibility to verify proper and reliable operation in the actual application.\n  Component substitution and printed circuit board layout may significantly affect circuit performance or reliability.\n  Contact your local sales representative for assistance. This circuit is distributed to customers only for use with LTC parts.\n  Copyright © 2012 Linear Technology Inc.  All rights reserved.
* Two 2.5V, 2.2Farad SuperCaps\n(Substituted 2.2mF to speed up simulations)
.lib LTM8026.sub
.backanno
.end
