* Z:\mnt\spice-netlists\LTM8003-3.3.asc
V1 IN 0 24
R1 N003 0 41.2K
Rload OUT 0 1
C1 OUT 0 100µ
C2 N001 0 .001µ
XU2 0 OUT N002 MP_01 N003 MP_02 MP_03 MP_04 MP_05 0 N001 IN IN OUT LTM8003-3.3
R2 OUT N002 100K
C3 IN 0 4.7µ
.tran 1m startup
* LTM8003-3.3 - 40Vin, 3.5A Step-Down µModule Regulator\nLow EMI Buck µModule Regulator\nInput: 6.0V to 40V       Output: 3.3V @  3.5A, Fsw = 1MHz
* Note:\n  If the simulation model is not found please update with the "Sync Release" command from the "Tools" menu.\n  It remains the customer's responsibility to verify proper and reliable operation in the actual application.\n  Component substitution and printed circuit board layout may significantly affect circuit performance or reliability.\n  Contact your local sales representative for assistance. This circuit is distributed to customers only for use with LTC parts.\n  Copyright © 2016 Linear Technology Inc. All rights reserved.
.lib LTM8003-3.3.sub
.backanno
.end
