* Z:\mnt\spice-netlists\LTM8025.asc
C1 OUT 0 22µ
V1 IN 0 24
R1 N003 0 34.8K
R2 N002 0 47.5K
XU1 N001 OUT N001 IN IN MP_01 NC_02 N003 NC_03 N002 0 LTM8025
Rload OUT 0 4
.tran 500u startup
* LTM8025, 36V, 3A Step-Down µModule Regulator\nInput: 24V       Output: 12V @ 3A
* Note:\n  If the simulation model is not found please update with the "Sync Release" command from the "Tools" menu.\n  It remains the customer's responsibility to verify proper and reliable operation in the actual application.\n  Component substitution and printed circuit board layout may significantly affect circuit performance or reliability.\n  Contact your local sales representative for assistance. This circuit is distributed to customers only for use with LTC parts.\n  Copyright © 2010 Linear Technology Inc. All rights reserved.
.lib LTM8025.sub
.backanno
.end
