* Z:\mnt\spice-netlists\LTM8033.asc
C1 OUT 0 100µ
V1 IN 0 12
R1 N007 0 154K
R2 N005 0 93.1K
Rload OUT 0 1.1
XU1 N003 OUT N003 IN N001 N002 N004 N007 N006 N005 0 LTM8033
C2 N002 0 10µ
C3 IN 0 4.7µ
R4 IN N001 15K
C4 N001 0 0.22µ
R3 OUT N004 100K
.tran 1m startup
* Note:\n  If the simulation model is not found please update with the "Sync Release" command from the "Tools" menu.\n  It remains the customer's responsibility to verify proper and reliable operation in the actual application.\n  Component substitution and printed circuit board layout may significantly affect circuit performance or reliability.\n  Contact your local sales representative for assistance. This circuit is distributed to customers only for use with LTC parts.\n  Copyright © 2011 Linear Technology Inc. All rights reserved.
* LTM8033 - Ultralow Noise, EMC Compliant 36Vin, 3A DC/DC µModule Regulator\n425kHz Step-Down DC/DC Converter for Automotive, Wall Adapters or Industrial Supplies\nInput: 12V       Output: 3.3V @ 3A
.lib LTM8033.sub
.backanno
.end
