* Z:\mnt\spice-netlists\LTM8045_TA02_DC1533A.asc
R1 N001 0 130K
C2 OUT- 0 22µ
V1 IN 0 5
C1 IN 0 4.7µ
R2 OUT- N002 60.4K
Rload- OUT- 0 12
XU1 N002 0 IN OUT- IN N001 NC_01 MP_02 0 LTM8045
.tran 1m startup
* Note:\n  If the simulation model is not found please update with the "Sync Release" command from the "Tools" menu.\n  It remains the customer's responsibility to verify proper and reliable operation in the actual application.\n  Component substitution and printed circuit board layout may significantly affect circuit performance or reliability.\n  Contact your local sales representative for assistance. This circuit is distributed to customers only for use with LTC parts.\n  Copyright © 2013 Linear Technology Inc. All rights reserved.
* LTM8045 - Inverting or SEPIC µModule DC/DC Converter with Up to 700mA Output Current\n-5V Inverting Converter\nInput: 2.8V to 18V       Output: -5V @ 430mA with 5V input, Fsw = 700kHz
.lib LTM8045.sub
.backanno
.end
