* Z:\mnt\spice-netlists\LTM8003_DC2416A.asc
V1 IN 0 12
R1 N003 0 18.2K
Rload OUT 0 1.3
C1 OUT 0 47µ
R2 0 N004 24.3K
C2 N001 0 .01µ
XU1 0 OUT N002 MP_01 N003 MP_02 N004 MP_03 MP_04 0 N001 IN IN OUT LTM8003
R3 OUT N002 100K
C3 IN 0 4.7µ
.tran 15m startup
* LTM8003 - 40Vin, 3.5A Step-Down µModule Regulator\nLow EMI Buck µModule Regulator\nInput: 6.0V to 40V       Output: 5V @  3.5A, Fsw = 2MHz
* Note:\n  If the simulation model is not found please update with the "Sync Release" command from the "Tools" menu.\n  It remains the customer's responsibility to verify proper and reliable operation in the actual application.\n  Component substitution and printed circuit board layout may significantly affect circuit performance or reliability.\n  Contact your local sales representative for assistance. This circuit is distributed to customers only for use with LTC parts.\n  Copyright © 2016 Linear Technology Inc. All rights reserved.
.lib LTM8003.sub
.backanno
.end
