* Z:\mnt\spice-netlists\LTM8020.asc
XU1 IN IN 0 N002 OUT OUT LTM8020
V1 IN 0 12
R1 N002 0 301K
C1 OUT 0 10µ
C2 IN 0 1µ
Rload OUT 0 16.5
.tran 750u startup
* LTM8020 - 200mA 36V DC/DC Step-Down Converter µModule in LGA package\nInput: 5V to 36V       Output: 3.3V @ 200mA
* Note:\n  If the simulation model is not found please update with the "Sync Release" command from the "Tools" menu.\n  It remains the customer's responsibility to verify proper and reliable operation in the actual application.\n  Component substitution and printed circuit board layout may significantly affect circuit performance or reliability.\n  Contact your local sales representative for assistance. This circuit is distributed to customers only for use with LTC parts.\n  Copyright © 2008 Linear Technology Inc. All rights reserved.
.lib LTM8020.sub
.backanno
.end
