* Z:\mnt\spice-netlists\LTM8048_TA01.asc
V1 IN 0 16
C1 N001 0 4.7µ
R1 N005 0 6.19K
C2 OUT1 0 22µ
XU1 0 OUT1 0 N005 IN N001 IN N003 N002 OUT2 N004 LTM8048
R2 N004 0 162K
C3 OUT2 0 10µ
Rload2 OUT2 0 42
Rload1 OUT1 0 48
C4 IN 0 2.2µ
.tran 2m startup
* LTM8048 - 3.1Vin to 32Vin Isolated µModule DC/DC Converter with LDO Post Regulator\n725V DC Isolated Low Noise µModule Regulator\nInput: 3.5V to 30V    Output: 5V @ 120mA & 5.7V @ 120mA (240mA Total Output Current)
* Note:\n  If the simulation model is not found please update with the "Sync Release" command from the "Tools" menu.\n  It remains the customer's responsibility to verify proper and reliable operation in the actual application.\n  Component substitution and printed circuit board layout may significantly affect circuit performance or reliability.\n  Contact your local sales representative for assistance. This circuit is distributed to customers only for use with LTC parts.\n  Copyright © 2012 Linear Technology Inc. All rights reserved.
* 5V @ 120mA
* 5.7V @ 120mA
.lib LTM8048.sub
.backanno
.end
